<?xml version="1.0" encoding="UTF-8"?>

<!-- generated on 2022-11-05 16:30:39 by Eclipse SUMO polyconvert Version 1.13.0
<configuration xmlns:xsi="http://www.w3.org/2001/XMLSchema-instance" xsi:noNamespaceSchemaLocation="http://sumo.dlr.de/xsd/polyconvertConfiguration.xsd">

    <input>
        <net-file value="osm.net.xml"/>
        <osm-files value="osm_bbox.osm.xml.gz"/>
        <osm.keep-full-type value="true"/>
        <type-file value="/opt/homebrew/opt/sumo/share/sumo/data/typemap/osmPolyconvert.typ.xml"/>
    </input>

    <output>
        <output-file value="osm.poly.xml"/>
    </output>

    <processing>
        <poi-layer-offset value="5"/>
    </processing>

    <report>
        <verbose value="true"/>
    </report>

</configuration>
-->

<additional xmlns:xsi="http://www.w3.org/2001/XMLSchema-instance" xsi:noNamespaceSchemaLocation="http://sumo.dlr.de/xsd/additional_file.xsd">
    <location netOffset="-662780.14,-1512208.39" convBoundary="-598.30,-705.67,5217.91,5011.16" origBoundary="100.499660,13.667687,100.553614,13.719299" projParameter="+proj=utm +zone=47 +ellps=WGS84 +datum=WGS84 +units=m +no_defs"/>

    <poly id="1003930531" type="amenity.place_of_worship" color="237,199,199" fill="1" layer="-1.00" shape="683.495203,1524.262081 764.199838,1502.241663 750.815898,1459.421309 737.601890,1462.126673 727.470191,1426.827431 714.035826,1430.173092 709.170616,1410.704851 651.511791,1419.770614 683.495203,1524.262081"/>
    <poly id="1042954369" type="building.commercial" color="255,230,230" fill="1" layer="-1.00" shape="3536.366083,3659.226426 3531.548935,3668.322958 3539.870169,3672.900770 3545.321622,3662.713013 3542.296658,3660.436863 3539.266486,3658.979361 3536.366083,3659.226426"/>
    <poly id="1042954370" type="building.commercial" color="255,230,230" fill="1" layer="-1.00" shape="3538.337028,3646.958759 3535.795034,3652.075934 3546.264805,3657.275895 3548.954073,3652.812390 3538.337028,3646.958759"/>
    <poly id="1042954371" type="building.commercial" color="255,230,230" fill="1" layer="-1.00" shape="3552.113580,3681.541627 3556.059104,3683.635561 3567.963932,3662.193293 3563.794083,3659.655401 3552.113580,3681.541627"/>
    <poly id="1042954372" type="building.commercial" color="255,230,230" fill="1" layer="-1.00" shape="3569.607274,3662.314383 3558.604640,3681.361666 3574.497496,3689.328772 3584.611179,3670.596672 3577.201185,3660.504083 3569.607274,3662.314383"/>
    <poly id="1042954373" type="building.commercial" color="255,230,230" fill="1" layer="-1.00" shape="3580.541258,3682.950549 3588.754601,3687.483438 3595.317269,3676.052614 3587.431222,3671.079277 3580.541258,3682.950549"/>
    <poly id="1042954374" type="building.yes" color="255,230,230" fill="1" layer="-1.00" shape="3587.235952,3667.770121 3601.384998,3677.806038 3622.043786,3645.643901 3607.600862,3635.893748 3587.235952,3667.770121"/>
    <poly id="1042954375" type="building.yes" color="255,230,230" fill="1" layer="-1.00" shape="3607.161324,3670.961461 3618.348120,3679.064590 3634.135632,3657.702378 3621.189819,3648.957441 3607.161324,3670.961461"/>
    <poly id="1042954376" type="building.yes" color="255,230,230" fill="1" layer="-1.00" shape="3612.050690,3687.908297 3629.787246,3700.201844 3648.518658,3673.459514 3632.554239,3661.442754 3612.050690,3687.908297"/>
    <poly id="1042954377" type="building.yes" color="255,230,230" fill="1" layer="-1.00" shape="3609.749455,3675.591311 3601.598224,3686.790756 3604.826150,3689.466483 3607.768111,3686.088790 3611.091580,3687.349029 3615.292673,3681.578626 3613.886258,3679.921249 3614.059555,3678.185421 3609.749455,3675.591311"/>
    <poly id="1042954378" type="building.yes" color="255,230,230" fill="1" layer="-1.00" shape="3620.305809,3701.170369 3612.399463,3709.583430 3624.970316,3719.454431 3644.935458,3696.005741 3642.172698,3693.321907 3639.501759,3693.205333 3637.307391,3691.288483 3626.594583,3705.580388 3620.305809,3701.170369"/>
    <poly id="1042954379" type="building.yes" color="255,230,230" fill="1" layer="-1.00" shape="3577.237137,3619.160943 3565.785908,3637.309246 3574.080658,3642.650264 3581.813553,3632.598726 3586.702073,3624.188576 3577.237137,3619.160943"/>
    <poly id="1042954380" type="building.yes" color="255,230,230" fill="1" layer="-1.00" shape="3589.351219,3626.030872 3580.450505,3637.723400 3591.234197,3644.584866 3599.136735,3633.372771 3589.351219,3626.030872"/>
    <poly id="1042954381" type="building.yes" color="255,230,230" fill="1" layer="-1.00" shape="3562.623806,3598.789015 3550.407006,3618.260043 3568.795701,3630.070906 3581.451185,3611.354978 3562.623806,3598.789015"/>
    <poly id="1042958265" type="building.yes" color="255,230,230" fill="1" layer="-1.00" shape="3662.799009,3710.435330 3647.273462,3697.447786 3665.778609,3673.967685 3676.057188,3682.009742 3660.005480,3700.692941 3666.231081,3706.529728 3662.799009,3710.435330"/>
    <poly id="1042958266" type="building.yes" color="255,230,230" fill="1" layer="-1.00" shape="3658.428086,3681.720478 3665.298154,3672.979996 3655.509813,3664.387903 3648.518658,3673.459514 3658.428086,3681.720478"/>
    <poly id="1042958267" type="building.yes" color="255,230,230" fill="1" layer="-1.00" shape="3677.336484,3683.245910 3661.291749,3700.833890 3672.328538,3710.407504 3662.127875,3724.105241 3667.597363,3728.078587 3692.660993,3693.831465 3690.368298,3692.068870 3689.146469,3693.698451 3677.336484,3683.245910"/>
    <poly id="1042958268" type="building.yes" color="255,230,230" fill="1" layer="-1.00" shape="3663.047882,3727.407949 3667.318687,3731.074955 3657.256349,3743.434919 3652.731141,3740.651356 3663.047882,3727.407949"/>
    <poly id="1042958269" type="building.yes" color="255,230,230" fill="1" layer="-1.00" shape="3659.026169,3744.076794 3670.748926,3727.456986 3681.557116,3735.557737 3669.955727,3751.802162 3659.026169,3744.076794"/>
    <poly id="1042958270" type="building.yes" color="255,230,230" fill="1" layer="-1.00" shape="3670.889074,3725.831580 3682.448825,3734.811114 3706.249703,3705.224657 3693.431649,3695.108648 3670.889074,3725.831580"/>
    <poly id="1042958271" type="building.yes" color="255,230,230" fill="1" layer="-1.00" shape="3671.128901,3752.716820 3688.750039,3766.138134 3709.194890,3740.402449 3702.634008,3734.563515 3706.403108,3728.690804 3695.253282,3721.583560 3671.128901,3752.716820"/>
    <poly id="1042958273" type="building.yes" color="255,230,230" fill="1" layer="-1.00" shape="3708.669587,3727.775926 3722.245307,3737.808266 3732.332765,3724.906383 3719.337445,3715.453025 3708.669587,3727.775926"/>
    <poly id="1042958278" type="building.yes" color="255,230,230" fill="1" layer="-1.00" shape="3759.195724,3735.919511 3763.869166,3727.319944 3737.684584,3713.390432 3733.126288,3720.895474 3734.881627,3722.112551 3732.990995,3725.153967 3752.269984,3736.417487 3754.375529,3733.598707 3759.195724,3735.919511"/>
    <poly id="1042958279" type="building.yes" color="255,230,230" fill="1" layer="-1.00" shape="3767.259986,3728.193419 3761.466600,3739.407844 3771.878694,3745.160700 3777.776791,3734.489045 3767.259986,3728.193419"/>
    <poly id="1042958300" type="building.yes" color="255,230,230" fill="1" layer="-1.00" shape="3621.461299,3618.203325 3625.917682,3609.712988 3646.940699,3622.292979 3641.604684,3631.330877 3636.897481,3628.247452 3635.133510,3630.083786 3638.631350,3632.838677 3637.408114,3634.689517 3628.968015,3631.792532 3625.965064,3636.254033 3613.704991,3628.531285 3618.365158,3622.011503 3626.575066,3627.086480 3628.464352,3624.255250 3621.461299,3618.203325"/>
    <poly id="1042958301" type="building.yes" color="255,230,230" fill="1" layer="-1.00" shape="3655.002712,3645.499699 3661.583451,3631.236809 3651.058198,3626.257712 3639.469850,3650.644791 3657.112098,3659.065616 3655.768233,3662.873883 3666.073626,3668.404746 3670.964071,3659.695914 3666.254130,3657.043932 3674.841341,3638.534468 3669.251448,3634.781621 3661.789670,3649.813327 3655.002712,3645.499699"/>
    <poly id="1042958302" type="building.yes" color="255,230,230" fill="1" layer="-1.00" shape="3653.966939,3619.605088 3682.858929,3636.439249 3693.508406,3616.814469 3664.821936,3598.277865 3657.462640,3612.502608 3666.902483,3618.072212 3670.682436,3610.495824 3683.748603,3617.327608 3678.520946,3626.333000 3660.500640,3616.128572 3653.966939,3619.605088"/>
    <poly id="1042958303" type="building.yes" color="255,230,230" fill="1" layer="-1.00" shape="3685.586933,3649.677212 3696.680436,3633.363175 3718.691511,3647.044785 3708.580854,3663.586339 3685.586933,3649.677212"/>
    <poly id="1042958304" type="building.yes" color="255,230,230" fill="1" layer="-1.00" shape="3670.576747,3666.165452 3693.129206,3678.058243 3694.063127,3680.874258 3689.810719,3687.905535 3682.000088,3684.680641 3671.390016,3676.039055 3672.121598,3674.959514 3666.913908,3672.337552 3670.576747,3666.165452"/>
    <poly id="1042958305" type="building.yes" color="255,230,230" fill="1" layer="-1.00" shape="3693.302236,3686.555926 3699.987205,3672.913251 3706.600172,3670.576767 3719.321877,3677.140862 3720.888273,3682.549709 3713.251831,3696.131004 3709.398380,3698.263796 3694.434758,3690.457405 3693.302236,3686.555926"/>
    <poly id="1042958306" type="building.yes" color="255,230,230" fill="1" layer="-1.00" shape="3716.420660,3665.627658 3723.464726,3653.348055 3753.604650,3669.537520 3745.472057,3682.894382 3716.420660,3665.627658"/>
    <poly id="1042958307" type="building.yes" color="255,230,230" fill="1" layer="-1.00" shape="3750.586098,3708.704356 3754.399713,3700.940117 3769.649357,3709.688744 3765.253080,3717.228004 3750.586098,3708.704356"/>
    <poly id="1042958308" type="building.yes" color="255,230,230" fill="1" layer="-1.00" shape="3764.658439,3718.883705 3768.099972,3713.495697 3772.510005,3715.681132 3767.161662,3724.951257 3756.250435,3717.745937 3757.717692,3714.945216 3764.658439,3718.883705"/>
    <poly id="1042987035" type="building.yes" color="255,230,230" fill="1" layer="-1.00" shape="3761.868150,3691.661370 3767.957667,3679.807162 3774.612379,3682.803453 3773.658973,3684.744512 3774.964972,3685.184300 3777.600128,3680.731533 3783.449866,3684.441809 3781.257433,3687.315350 3781.837413,3687.960715 3773.782111,3699.370927 3768.002591,3696.524035 3768.442142,3695.442636 3761.868150,3691.661370"/>
    <poly id="1042987036" type="building.yes" color="255,230,230" fill="1" layer="-1.00" shape="3785.085167,3701.102437 3795.012705,3681.052687 3808.381026,3687.986037 3804.779314,3694.744864 3815.192760,3700.287544 3808.806606,3712.858964 3785.085167,3701.102437"/>
    <poly id="1042987037" type="building.yes" color="255,230,230" fill="1" layer="-1.00" shape="3772.970601,3724.877637 3780.385359,3710.443073 3790.512266,3715.120982 3782.653551,3729.630158 3772.970601,3724.877637"/>
    <poly id="1042987038" type="building.yes" color="255,230,230" fill="1" layer="-1.00" shape="3784.790180,3737.211043 3789.705391,3728.015604 3797.294672,3732.024614 3792.596203,3741.155054 3784.790180,3737.211043"/>
    <poly id="1042987044" type="building.yes" color="255,230,230" fill="1" layer="-1.00" shape="3796.961685,3746.935770 3808.836297,3725.172565 3830.355977,3737.866523 3816.590556,3757.604156 3796.961685,3746.935770"/>
    <poly id="1042987046" type="building.yes" color="255,230,230" fill="1" layer="-1.00" shape="3813.429843,3718.928970 3819.799570,3708.935186 3830.624511,3714.403052 3835.604667,3706.900713 3846.935565,3712.747962 3834.811386,3731.234837 3813.429843,3718.928970"/>
    <poly id="1043081643" type="building.yes" color="255,230,230" fill="1" layer="-1.00" shape="3824.501970,3663.550461 3834.293792,3646.132913 3852.677495,3658.707327 3841.146007,3674.144519 3824.501970,3663.550461"/>
    <poly id="1043081648" type="building.yes" color="255,230,230" fill="1" layer="-1.00" shape="3862.647230,3606.596524 3889.423305,3563.388159 3861.301002,3547.985832 3835.103479,3588.675485 3862.647230,3606.596524"/>
    <poly id="1043081649" type="building.yes" color="255,230,230" fill="1" layer="-1.00" shape="3816.778145,3582.208384 3807.684158,3597.052645 3823.627354,3605.606579 3825.980560,3602.966394 3835.445465,3607.994122 3841.839393,3597.602217 3816.778145,3582.208384"/>
    <poly id="1043081650" type="building.yes" color="255,230,230" fill="1" layer="-1.00" shape="3801.147781,3602.642194 3805.630372,3605.325941 3803.446068,3608.619937 3812.256478,3612.813741 3817.395677,3615.999522 3820.593285,3611.550342 3826.405270,3614.397451 3816.308800,3630.396963 3792.728638,3616.826964 3801.147781,3602.642194"/>
    <poly id="1043081651" type="building.yes" color="255,230,230" fill="1" layer="-1.00" shape="3777.182235,3618.995876 3787.621469,3625.589714 3774.356426,3646.580706 3765.672965,3641.137575 3777.182235,3618.995876"/>
    <poly id="1043081652" type="building.yes" color="255,230,230" fill="1" layer="-1.00" shape="3777.579196,3616.110894 3784.746478,3601.475613 3796.323033,3607.822246 3787.523286,3622.325426 3777.579196,3616.110894"/>
    <poly id="1043081653" type="building.yes" color="255,230,230" fill="1" layer="-1.00" shape="3801.936099,3599.449934 3785.954915,3590.066028 3791.058001,3581.944920 3783.259893,3576.750818 3791.182766,3562.363744 3805.131690,3573.250368 3803.347863,3576.502663 3806.610772,3578.780360 3802.508013,3587.781838 3806.908619,3591.449693 3801.936099,3599.449934"/>
    <poly id="1043081654" type="building.yes" color="255,230,230" fill="1" layer="-1.00" shape="3819.374517,3570.265543 3837.581178,3581.776737 3849.445123,3563.398831 3831.532251,3551.612921 3819.374517,3570.265543"/>
    <poly id="1043081655" type="building.yes" color="255,230,230" fill="1" layer="-1.00" shape="3843.002760,3535.566852 3836.573522,3544.708384 3853.870511,3556.390803 3860.636394,3547.041218 3843.002760,3535.566852"/>
    <poly id="1043081656" type="building.yes" color="255,230,230" fill="1" layer="-1.00" shape="3792.827353,3560.593037 3805.848385,3569.415983 3819.941536,3549.182579 3804.943185,3540.026193 3792.827353,3560.593037"/>
    <poly id="1043081657" type="building.yes" color="255,230,230" fill="1" layer="-1.00" shape="3836.680762,3527.881845 3852.332551,3538.038109 3867.999237,3511.918035 3851.034773,3500.669197 3836.680762,3527.881845"/>
    <poly id="1043081659" type="building.yes" color="255,230,230" fill="1" layer="-1.00" shape="3743.964186,3581.700210 3736.522505,3593.567937 3735.853701,3594.979774 3736.166347,3596.840393 3737.372891,3597.611443 3739.138669,3597.191224 3741.132678,3594.902768 3743.758565,3596.999387 3742.527709,3600.045006 3742.186138,3601.027460 3742.836197,3602.558330 3744.489655,3602.790128 3746.138569,3602.037267 3749.429806,3603.264128 3752.626131,3602.410492 3752.853589,3600.663946 3753.089819,3599.238290 3757.253005,3601.123439 3759.459814,3599.389503 3763.356943,3592.101516 3743.964186,3581.700210"/>
    <poly id="1043081660" type="building.yes" color="255,230,230" fill="1" layer="-1.00" shape="3712.363703,3585.924239 3717.139040,3578.309942 3731.277669,3586.586804 3726.275190,3594.199652 3712.363703,3585.924239"/>
    <poly id="1043081661" type="building.yes" color="255,230,230" fill="1" layer="-1.00" shape="3727.388510,3575.642597 3734.264615,3565.961790 3745.650627,3573.358192 3739.326212,3583.031448 3727.388510,3575.642597"/>
    <poly id="1043081662" type="building.yes" color="255,230,230" fill="1" layer="-1.00" shape="3754.371862,3564.386128 3764.617341,3548.763695 3783.288953,3562.003677 3773.241751,3577.063141 3754.371862,3564.386128"/>
    <poly id="1043081663" type="building.yes" color="255,230,230" fill="1" layer="-1.00" shape="3738.671122,3550.025576 3752.956359,3560.759426 3748.035220,3567.487729 3729.812873,3558.432546 3738.671122,3550.025576"/>
    <poly id="1043081664" type="building.yes" color="255,230,230" fill="1" layer="-1.00" shape="3766.126606,3542.765960 3770.959430,3534.621000 3792.119219,3549.503138 3786.898842,3557.357981 3766.126606,3542.765960"/>
    <poly id="1043081665" type="building.yes" color="255,230,230" fill="1" layer="-1.00" shape="3750.435213,3557.501831 3756.419967,3548.512336 3743.185688,3539.201276 3737.387207,3547.815810 3750.435213,3557.501831"/>
    <poly id="1043081666" type="building.yes" color="255,230,230" fill="1" layer="-1.00" shape="3743.853154,3537.999632 3756.924275,3547.453475 3760.801713,3541.559332 3747.667948,3531.751064 3743.853154,3537.999632"/>
    <poly id="1043081667" type="building.yes" color="255,230,230" fill="1" layer="-1.00" shape="3674.485517,3544.926000 3664.916330,3559.667708 3675.865592,3566.010287 3684.924804,3551.519790 3674.485517,3544.926000"/>
    <poly id="1043081668" type="building.yes" color="255,230,230" fill="1" layer="-1.00" shape="3673.619372,3541.656825 3661.421835,3534.299544 3651.336265,3550.299180 3663.540668,3558.276042 3673.619372,3541.656825"/>
    <poly id="1043081669" type="building.yes" color="255,230,230" fill="1" layer="-1.00" shape="3604.616912,3545.598621 3633.968434,3561.628021 3652.864588,3529.410423 3625.394963,3510.007628 3604.616912,3545.598621"/>
    <poly id="1043081670" type="building.yes" color="255,230,230" fill="1" layer="-1.00" shape="3670.706210,3532.013245 3678.630976,3537.705962 3687.563645,3522.705750 3680.147236,3517.016267 3670.706210,3532.013245"/>
    <poly id="1043081671" type="building.yes" color="255,230,230" fill="1" layer="-1.00" shape="3650.955277,3520.094072 3669.194344,3531.627468 3676.857965,3518.876077 3674.596150,3517.357073 3676.244605,3514.977906 3668.955591,3509.665388 3665.900723,3513.783596 3657.590198,3509.216880 3650.955277,3520.094072"/>
    <poly id="1043081672" type="building.yes" color="255,230,230" fill="1" layer="-1.00" shape="3643.917890,3516.033311 3650.081562,3519.712359 3659.264610,3504.459277 3653.743878,3500.032019 3643.917890,3516.033311"/>
    <poly id="1043081673" type="building.yes" color="255,230,230" fill="1" layer="-1.00" shape="3635.794689,3502.429117 3646.992754,3508.773265 3654.003002,3498.407371 3642.048648,3491.925647 3635.794689,3502.429117"/>
    <poly id="1043081674" type="building.yes" color="255,230,230" fill="1" layer="-1.00" shape="3700.318716,3500.262182 3692.701123,3510.878653 3707.427889,3521.925056 3714.302660,3512.454437 3700.318716,3500.262182"/>
    <poly id="1043081675" type="building.yes" color="255,230,230" fill="1" layer="-1.00" shape="3712.462848,3505.815829 3665.236735,3473.664010 3672.417341,3462.026929 3720.073124,3496.349895 3712.462848,3505.815829"/>
    <poly id="1043081676" type="building.yes" color="255,230,230" fill="1" layer="-1.00" shape="3654.430210,3483.972545 3663.228084,3469.756957 3648.765843,3463.026937 3641.707548,3477.541247 3654.430210,3483.972545"/>
    <poly id="1043081677" type="building.yes" color="255,230,230" fill="1" layer="-1.00" shape="3669.509377,3463.457702 3678.908064,3444.920210 3660.257538,3435.143252 3650.563164,3454.254156 3669.509377,3463.457702"/>
    <poly id="1043081678" type="building.yes" color="255,230,230" fill="1" layer="-1.00" shape="3673.005993,3461.311566 3681.239269,3466.121185 3695.293677,3445.168362 3684.320651,3437.453785 3673.005993,3461.311566"/>
    <poly id="1043081679" type="building.yes" color="255,230,230" fill="1" layer="-1.00" shape="3660.415515,3434.115375 3679.108461,3444.025363 3688.804902,3424.593645 3670.967058,3414.589527 3660.415515,3434.115375"/>
    <poly id="1043081680" type="building.yes" color="255,230,230" fill="1" layer="-1.00" shape="3692.264459,3421.473709 3685.386515,3434.838580 3695.963781,3441.853653 3704.081999,3429.060907 3692.264459,3421.473709"/>
    <poly id="1043081681" type="building.yes" color="255,230,230" fill="1" layer="-1.00" shape="3679.097948,3399.805469 3682.778822,3392.505030 3688.599572,3395.684054 3685.113389,3402.985732 3679.097948,3399.805469"/>
    <poly id="1043081682" type="building.yes" color="255,230,230" fill="1" layer="-1.00" shape="3673.363496,3413.653344 3680.526854,3401.330232 3698.364071,3411.433922 3690.239896,3423.463267 3673.363496,3413.653344"/>
    <poly id="1043081683" type="building.yes" color="255,230,230" fill="1" layer="-1.00" shape="3687.036380,3401.659322 3692.946194,3389.151220 3696.386282,3390.788359 3701.274115,3389.292752 3706.516182,3393.319966 3704.278186,3398.250991 3697.807257,3407.148897 3687.036380,3401.659322"/>
    <poly id="1043081684" type="building.yes" color="255,230,230" fill="1" layer="-1.00" shape="3694.618227,3418.745009 3710.194187,3393.265944 3719.901378,3401.027785 3704.717190,3426.133189 3694.618227,3418.745009"/>
    <poly id="1043081685" type="building.yes" color="255,230,230" fill="1" layer="-1.00" shape="3686.037960,3468.430769 3695.312364,3452.425977 3706.674411,3460.198353 3698.484545,3477.449133 3686.037960,3468.430769"/>
    <poly id="1043081686" type="building.yes" color="255,230,230" fill="1" layer="-1.00" shape="3703.035257,3471.138865 3711.477029,3477.177844 3721.592010,3461.665195 3711.405762,3454.398146 3703.035257,3471.138865"/>
    <poly id="1043081687" type="building.yes" color="255,230,230" fill="1" layer="-1.00" shape="3713.173020,3421.474088 3698.180581,3447.045372 3700.172067,3448.551592 3698.149516,3451.924069 3708.523800,3458.539578 3711.390329,3453.424482 3721.834616,3460.936566 3737.320638,3437.691721 3726.032752,3430.163196 3715.761611,3446.416088 3714.029222,3444.988959 3723.705894,3428.665901 3713.173020,3421.474088"/>
    <poly id="1043081688" type="building.yes" color="255,230,230" fill="1" layer="-1.00" shape="3715.118382,3418.333448 3724.579936,3401.820945 3747.598349,3420.409995 3737.936033,3434.476233 3715.118382,3418.333448"/>
    <poly id="1043081689" type="building.yes" color="255,230,230" fill="1" layer="-1.00" shape="3710.117411,3488.553276 3720.240298,3495.576531 3751.141128,3448.378349 3739.972791,3440.762072 3710.117411,3488.553276"/>
    <poly id="1043081690" type="building.yes" color="255,230,230" fill="1" layer="-1.00" shape="3761.409785,3441.009249 3754.636237,3451.564703 3764.491262,3458.187992 3770.816487,3448.393048 3761.409785,3441.009249"/>
    <poly id="1082971282" type="building.yes" color="255,230,230" fill="1" layer="-1.00" shape="2607.356467,2652.079467 2590.193966,2665.147230 2585.795629,2661.070295 2582.039821,2664.863355 2584.818486,2668.487522 2575.020615,2676.689792 2577.345688,2680.200459 2561.160246,2694.424985 2566.318765,2701.449531 2595.810574,2674.995792 2615.322528,2663.292599 2607.356467,2652.079467"/>
    <poly id="1082971283" type="landuse.grass" color="194,194,130" fill="1" layer="-3.00" shape="2615.322528,2663.292599 2673.040153,2754.143509 2686.397866,2774.838748 2688.339682,2777.373442 2690.868734,2779.414007 2693.971126,2781.447136 2698.102408,2783.276574 2704.461279,2786.923408 2707.702570,2790.937730 2681.508969,2826.085758 2673.658592,2820.537686 2627.719390,2770.949518 2566.625683,2705.943128 2563.958938,2703.437053 2566.318765,2701.449531 2595.810574,2674.995792 2615.322528,2663.292599"/>
    <poly id="1082971285" type="amenity.parking" color="184,184,179" fill="1" layer="-1.00" shape="2564.192836,2656.165502 2580.312143,2642.139694 2595.573528,2659.450504 2590.069834,2664.250326 2584.345430,2657.764295 2578.297977,2663.025337 2582.744313,2668.065072 2578.176153,2672.030007 2564.192836,2656.165502"/>
    <poly id="137220001" type="building.yes" color="255,230,230" fill="1" layer="-1.00" shape="1581.164582,3439.481116 1582.931888,3443.972804 1591.031683,3440.815411 1589.253562,3436.323655 1581.164582,3439.481116"/>
    <poly id="137220002" type="building.yes" color="255,230,230" fill="1" layer="-1.00" shape="1822.337941,3558.478148 1830.596250,3552.478595 1827.239381,3547.921560 1818.981141,3553.910052 1822.337941,3558.478148"/>
    <poly id="137220003" type="building.yes" color="255,230,230" fill="1" layer="-1.00" shape="1708.679253,3501.595095 1714.438067,3509.486173 1747.524515,3485.620933 1741.776451,3477.740979 1708.679253,3501.595095"/>
    <poly id="137220004" type="building.yes" color="255,230,230" fill="1" layer="-1.00" shape="1357.219839,3642.687068 1344.761638,3645.761843 1346.027955,3650.803524 1358.475269,3647.739745 1357.219839,3642.687068"/>
    <poly id="137220005" type="building.yes" color="255,230,230" fill="1" layer="-1.00" shape="1675.839931,3536.049376 1686.871686,3527.622268 1681.271074,3520.373855 1672.380383,3527.177086 1670.239249,3528.812028 1675.839931,3536.049376"/>
    <poly id="137220006" type="building.yes" color="255,230,230" fill="1" layer="-1.00" shape="1597.757312,3683.727149 1604.352812,3682.407856 1601.950176,3670.588359 1595.365489,3671.907721 1597.757312,3683.727149"/>
    <poly id="137220007" type="building.yes" color="255,230,230" fill="1" layer="-1.00" shape="1352.955018,3677.641953 1365.748988,3674.491850 1362.425447,3661.173080 1349.631402,3664.334248 1352.955018,3677.641953"/>
    <poly id="137220008" type="building.yes" color="255,230,230" fill="1" layer="-1.00" shape="1641.123121,3447.679773 1646.775253,3443.301120 1636.516806,3430.237396 1630.875490,3434.616120 1641.123121,3447.679773"/>
    <poly id="137220009" type="building.yes" color="255,230,230" fill="1" layer="-1.00" shape="1453.502870,3454.067707 1480.534927,3448.650640 1474.061562,3416.748102 1447.018590,3422.176174 1453.502870,3454.067707"/>
    <poly id="137220010" type="building.yes" color="255,230,230" fill="1" layer="-1.00" shape="1840.028881,3576.423368 1851.098373,3589.492298 1860.471554,3581.652226 1849.412878,3568.583360 1840.028881,3576.423368"/>
    <poly id="137220011" type="building.yes" color="255,230,230" fill="1" layer="-1.00" shape="1356.161747,3630.322892 1342.858572,3633.602562 1345.105913,3642.611008 1358.409084,3639.331339 1356.161747,3630.322892"/>
    <poly id="137220013" type="building.yes" color="255,230,230" fill="1" layer="-1.00" shape="1262.461967,3416.094453 1282.404871,3402.744685 1271.816159,3387.123470 1251.873250,3400.473247 1262.461967,3416.094453"/>
    <poly id="137220014" type="building.yes" color="255,230,230" fill="1" layer="-1.00" shape="1457.822040,3601.599799 1502.106272,3592.728830 1495.978866,3562.587491 1451.705404,3571.458543 1457.822040,3601.599799"/>
    <poly id="137220015" type="building.yes" color="255,230,230" fill="1" layer="-1.00" shape="1601.395222,3628.113412 1602.913425,3634.373642 1617.472627,3630.891798 1615.943612,3624.631499 1601.395222,3628.113412"/>
    <poly id="137220016" type="building.yes" color="255,230,230" fill="1" layer="-1.00" shape="1346.341210,3575.067207 1370.488493,3569.111964 1367.755629,3558.186544 1343.608337,3564.141790 1346.341210,3575.067207"/>
    <poly id="137220017" type="building.yes" color="255,230,230" fill="1" layer="-1.00" shape="1263.476444,3378.530401 1269.467193,3377.063402 1265.995872,3363.146320 1260.015936,3364.613388 1263.476444,3378.530401"/>
    <poly id="137220018" type="building.yes" color="255,230,230" fill="1" layer="-1.00" shape="1771.586647,3503.539812 1782.660012,3514.285465 1789.507476,3507.314522 1778.423224,3496.579861 1771.586647,3503.539812"/>
    <poly id="137220019" type="building.yes" color="255,230,230" fill="1" layer="-1.00" shape="1528.959007,3407.578739 1537.356232,3405.286124 1534.500819,3394.935196 1526.103591,3397.227812 1528.959007,3407.578739"/>
    <poly id="137220020" type="building.yes" color="255,230,230" fill="1" layer="-1.00" shape="1559.687971,3412.871986 1565.020051,3423.271676 1574.417050,3418.518275 1569.085041,3408.107520 1559.687971,3412.871986"/>
    <poly id="137220021" type="building.yes" color="255,230,230" fill="1" layer="-1.00" shape="1495.282488,3459.961334 1505.465738,3457.458671 1502.553974,3445.746625 1492.370720,3448.249290 1495.282488,3459.961334"/>
    <poly id="137220022" type="building.yes" color="255,230,230" fill="1" layer="-1.00" shape="1606.548752,3424.351429 1614.208743,3436.093347 1631.238030,3425.126212 1623.578042,3413.384288 1606.548752,3424.351429"/>
    <poly id="137220023" type="building.yes" color="255,230,230" fill="1" layer="-1.00" shape="1753.512123,3512.154889 1767.735959,3501.822911 1761.751551,3493.687011 1747.527714,3504.018992 1753.512123,3512.154889"/>
    <poly id="137220024" type="building.yes" color="255,230,230" fill="1" layer="-1.00" shape="1559.535147,3605.812418 1561.618824,3616.755913 1575.870102,3614.079721 1573.775614,3603.136156 1559.535147,3605.812418"/>
    <poly id="137220025" type="building.yes" color="255,230,230" fill="1" layer="-1.00" shape="1294.755680,3394.392078 1309.218093,3390.832004 1307.730513,3384.848572 1293.257351,3388.397516 1294.755680,3394.392078"/>
    <poly id="137220026" type="building.yes" color="255,230,230" fill="1" layer="-1.00" shape="1576.033361,3687.894119 1594.574417,3684.182850 1592.119227,3672.119634 1573.588979,3675.830974 1576.033361,3687.894119"/>
    <poly id="137220027" type="building.yes" color="255,230,230" fill="1" layer="-1.00" shape="1359.729597,3704.645376 1372.501923,3701.495142 1368.249856,3684.464385 1355.477523,3687.614622 1359.729597,3704.645376"/>
    <poly id="137220028" type="building.yes" color="255,230,230" fill="1" layer="-1.00" shape="1475.748105,3656.176316 1501.556157,3651.006055 1499.594187,3641.346657 1473.786057,3646.527983 1475.748105,3656.176316"/>
    <poly id="137220029" type="building.yes" color="255,230,230" fill="1" layer="-1.00" shape="1511.321401,3515.355746 1539.582444,3508.862280 1537.581278,3500.275759 1509.320226,3506.769228 1511.321401,3515.355746"/>
    <poly id="137220030" type="building.yes" color="255,230,230" fill="1" layer="-1.00" shape="1314.326496,3504.095313 1321.888050,3502.239915 1317.667518,3485.342133 1310.105890,3487.208595 1314.326496,3504.095313"/>
    <poly id="137220031" type="building.yes" color="255,230,230" fill="1" layer="-1.00" shape="1497.658090,3415.845357 1507.279128,3413.305971 1504.362214,3402.412566 1494.741173,3404.951954 1497.658090,3415.845357"/>
    <poly id="137220032" type="building.yes" color="255,230,230" fill="1" layer="-1.00" shape="1281.729124,3377.704562 1290.265757,3375.600817 1286.045592,3358.636669 1277.509023,3360.729353 1281.729124,3377.704562"/>