<?xml version="1.0" encoding="UTF-8"?>

<!-- generated on 2022-11-05 16:30:42 by Eclipse SUMO duarouter Version 1.13.0
<configuration xmlns:xsi="http://www.w3.org/2001/XMLSchema-instance" xsi:noNamespaceSchemaLocation="http://sumo.dlr.de/xsd/duarouterConfiguration.xsd">

    <input>
        <net-file value="/Users/nutorbit/workspace/sumo/test/osm.net.xml"/>
        <route-files value="/Users/nutorbit/workspace/sumo/test/osm.passenger.trips.xml"/>
    </input>

    <output>
        <output-file value="/Users/nutorbit/workspace/sumo/test/osm.passenger.trips.xml.tmp"/>
        <write-trips value="true"/>
    </output>

    <time>
        <begin value="0"/>
        <end value="3600"/>
    </time>

    <report>
        <no-warnings value="true"/>
        <ignore-errors value="true"/>
        <no-step-log value="true"/>
    </report>

</configuration>
-->

<routes xmlns:xsi="http://www.w3.org/2001/XMLSchema-instance" xsi:noNamespaceSchemaLocation="http://sumo.dlr.de/xsd/routes_file.xsd">
    <vType id="veh_passenger" vClass="passenger"/>
    <trip id="veh9" type="veh_passenger" depart="9.01" departLane="best" departSpeed="max" from="623972682" to="-1049819185#0"/>
    <trip id="veh30" type="veh_passenger" depart="30.04" departLane="best" from="156468900#0" to="622927460#1"/>
    <trip id="veh32" type="veh_passenger" depart="32.04" departLane="best" departSpeed="max" from="-693469704" to="-623353990"/>
    <trip id="veh33" type="veh_passenger" depart="33.04" departLane="best" departSpeed="max" from="-623273945" to="870647889#1"/>
    <trip id="veh53" type="veh_passenger" depart="53.07" departLane="best" from="702338879#3" to="-623295058"/>
    <trip id="veh55" type="veh_passenger" depart="55.07" departLane="best" from="835280901#2" to="848711272#1"/>
    <trip id="veh58" type="veh_passenger" depart="58.07" departLane="best" from="623280175" to="156468871"/>
    <trip id="veh63" type="veh_passenger" depart="63.08" departLane="best" from="-680494696#0" to="-156468941#0"/>
    <trip id="veh68" type="veh_passenger" depart="68.09" departLane="best" departSpeed="max" from="-930504124" to="156468951#2"/>
    <trip id="veh70" type="veh_passenger" depart="70.09" departLane="best" departSpeed="max" from="-866555943" to="-622936083"/>
    <trip id="veh87" type="veh_passenger" depart="87.11" departLane="best" departSpeed="max" from="929712412#0" to="-156639215#0"/>
    <trip id="veh94" type="veh_passenger" depart="94.12" departLane="best" from="156468828#0" to="-156468880#1"/>
    <trip id="veh96" type="veh_passenger" depart="96.12" departLane="best" departSpeed="max" from="870647889#0" to="866554848"/>
    <trip id="veh112" type="veh_passenger" depart="112.14" departLane="best" departSpeed="max" from="156637709" to="622646686"/>
    <trip id="veh113" type="veh_passenger" depart="113.14" departLane="best" departSpeed="max" from="-623295053#1" to="-302356866"/>
    <trip id="veh123" type="veh_passenger" depart="123.16" departLane="best" departSpeed="max" from="964564686" to="964562628"/>
    <trip id="veh132" type="veh_passenger" depart="132.17" departLane="best" departSpeed="max" from="622179750" to="867932607#1"/>
    <trip id="veh159" type="veh_passenger" depart="159.20" departLane="best" departSpeed="max" from="-707599061#3" to="866647153"/>
    <trip id="veh164" type="veh_passenger" depart="164.21" departLane="best" departSpeed="max" from="-623280176#2" to="688280145#1"/>
    <trip id="veh174" type="veh_passenger" depart="174.22" departLane="best" departSpeed="max" from="866839019" to="-623299878"/>
    <trip id="veh182" type="veh_passenger" depart="182.23" departLane="best" departSpeed="max" from="622956290" to="622579168"/>
    <trip id="veh190" type="veh_passenger" depart="190.24" departLane="best" departSpeed="max" from="709531024" to="307440564#1"/>
    <trip id="veh193" type="veh_passenger" depart="193.25" departLane="best" departSpeed="max" from="-867929176" to="156637716#1"/>
    <trip id="veh195" type="veh_passenger" depart="195.25" departLane="best" departSpeed="max" from="-872049401" to="-622936089#3"/>
    <trip id="veh201" type="veh_passenger" depart="201.26" departLane="best" departSpeed="max" from="622192372" to="-622942880#0"/>
    <trip id="veh210" type="veh_passenger" depart="210.27" departLane="best" from="-156661662#4" to="-856189883#0"/>
    <trip id="veh216" type="veh_passenger" depart="216.27" departLane="best" from="156637716#0" to="927516429#3"/>
    <trip id="veh221" type="veh_passenger" depart="221.28" departLane="best" departSpeed="max" from="-930495904" to="-623292554"/>
    <trip id="veh228" type="veh_passenger" depart="228.29" departLane="best" from="-623292560#0" to="622942880#1"/>
    <trip id="veh252" type="veh_passenger" depart="252.32" departLane="best" departSpeed="max" from="623273949" to="702338892#2"/>
    <trip id="veh261" type="veh_passenger" depart="261.33" departLane="best" from="156468944#3" to="-622936107"/>
    <trip id="veh300" type="veh_passenger" depart="300.38" departLane="best" departSpeed="max" from="156636291#0" to="-948315510"/>
    <trip id="veh306" type="veh_passenger" depart="306.39" departLane="best" departSpeed="max" from="156465633#0" to="623966630#2"/>
    <trip id="veh307" type="veh_passenger" depart="307.39" departLane="best" departSpeed="max" from="-622925203" to="-622936102#0"/>
    <trip id="veh308" type="veh_passenger" depart="308.39" departLane="best" departSpeed="max" from="-956664425" to="623288960"/>
    <trip id="veh313" type="veh_passenger" depart="313.40" departLane="best" departSpeed="max" from="156465626" to="-623364830"/>
    <trip id="veh337" type="veh_passenger" depart="337.43" departLane="best" from="-623292560#2" to="623273947"/>
    <trip id="veh342" type="veh_passenger" depart="342.43" departLane="best" departSpeed="max" from="-866647152#2" to="156468926#4"/>
    <trip id="veh350" type="veh_passenger" depart="350.44" departLane="best" departSpeed="max" from="-964568361" to="-156636344#2"/>
    <trip id="veh352" type="veh_passenger" depart="352.45" departLane="best" from="-702338880" to="-623276529"/>
    <trip id="veh363" type="veh_passenger" depart="363.46" departLane="best" from="622192349" to="727417410"/>
    <trip id="veh364" type="veh_passenger" depart="364.46" departLane="best" departSpeed="max" from="-707586056#6" to="622942880#1"/>
    <trip id="veh380" type="veh_passenger" depart="380.48" departLane="best" departSpeed="max" from="930647314#0" to="862437625"/>
    <trip id="veh396" type="veh_passenger" depart="396.50" departLane="best" from="156468838#1" to="156468915#1"/>
    <trip id="veh400" type="veh_passenger" depart="400.51" departLane="best" from="623299881#0" to="-156465667"/>
    <trip id="veh401" type="veh_passenger" depart="401.51" departLane="best" departSpeed="max" from="623031540" to="623037113"/>
    <trip id="veh414" type="veh_passenger" depart="414.53" departLane="best" from="622927460#1" to="623718981"/>
    <trip id="veh416" type="veh_passenger" depart="416.53" departLane="best" departSpeed="max" from="-156468968#2" to="40052526#1"/>
    <trip id="veh444" type="veh_passenger" depart="444.56" departLane="best" departSpeed="max" from="-156468835" to="156661761#2"/>
    <trip id="veh475" type="veh_passenger" depart="475.60" departLane="best" departSpeed="max" from="-623280173#2" to="-156468973#0"/>
    <trip id="veh478" type="veh_passenger" depart="478.61" departLane="best" from="-40057063#0" to="872049401"/>
    <trip id="veh481" type="veh_passenger" depart="481.61" departLane="best" departSpeed="max" from="-377292923#1" to="-874950721"/>
    <trip id="veh483" type="veh_passenger" depart="483.61" departLane="best" departSpeed="max" from="857957729" to="-850416601#0"/>
    <trip id="veh485" type="veh_passenger" depart="485.62" departLane="best" departSpeed="max" from="-862445032" to="-156639215#3"/>
    <trip id="veh519" type="veh_passenger" depart="519.66" departLane="best" departSpeed="max" from="730932517#0" to="-156636238"/>
    <trip id="veh536" type="veh_passenger" depart="536.68" departLane="best" departSpeed="max" from="156636338#0" to="156636201#3"/>
    <trip id="veh564" type="veh_passenger" depart="564.72" departLane="best" departSpeed="max" from="622179736" to="1035037282"/>
    <trip id="veh566" type="veh_passenger" depart="566.72" departLane="best" departSpeed="max" from="623276511" to="-156661777#8"/>
    <trip id="veh584" type="veh_passenger" depart="584.74" departLane="best" from="156661752#4" to="702338892#2"/>
    <trip id="veh585" type="veh_passenger" depart="585.74" departLane="best" from="848723580#1" to="-156637709"/>
    <trip id="veh592" type="veh_passenger" depart="592.75" departLane="best" departSpeed="max" from="709531040" to="-675171988#3"/>
    <trip id="veh613" type="veh_passenger" depart="613.78" departLane="best" from="707855502#2" to="-870647889#0"/>
    <trip id="veh621" type="veh_passenger" depart="621.79" departLane="best" departSpeed="max" from="-555898496" to="-707825923#0"/>
    <trip id="veh627" type="veh_passenger" depart="627.80" departLane="best" departSpeed="max" from="622936093" to="622179752"/>
    <trip id="veh640" type="veh_passenger" depart="640.81" departLane="best" from="-622633299#0" to="-622936089#6"/>
    <trip id="veh643" type="veh_passenger" depart="643.82" departLane="best" departSpeed="max" from="-156636255" to="707825930#1"/>
    <trip id="veh668" type="veh_passenger" depart="668.85" departLane="best" departSpeed="max" from="709531038" to="-555897888#1"/>
    <trip id="veh670" type="veh_passenger" depart="670.85" departLane="best" from="-623280176#1" to="-870649002"/>
    <trip id="veh688" type="veh_passenger" depart="688.87" departLane="best" departSpeed="max" from="709531038" to="156661681"/>
    <trip id="veh695" type="veh_passenger" depart="695.88" departLane="best" departSpeed="max" from="930494486" to="156468973#4"/>
    <trip id="veh696" type="veh_passenger" depart="696.88" departLane="best" departSpeed="max" from="-857953563" to="-930568340"/>
    <trip id="veh698" type="veh_passenger" depart="698.89" departLane="best" departSpeed="max" from="-623699006" to="-156465525"/>
    <trip id="veh713" type="veh_passenger" depart="713.91" departLane="best" from="623273952#1" to="-622633298"/>
    <trip id="veh727" type="veh_passenger" depart="727.92" departLane="best" departSpeed="max" from="-866647153" to="622940380"/>
    <trip id="veh739" type="veh_passenger" depart="739.94" departLane="best" from="156468963#3" to="156661752#9"/>
    <trip id="veh753" type="veh_passenger" depart="753.96" departLane="best" departSpeed="max" from="-156636374#2" to="622926302"/>
    <trip id="veh756" type="veh_passenger" depart="756.96" departLane="best" from="156465648#12" to="852278618#0"/>
    <trip id="veh770" type="veh_passenger" depart="770.98" departLane="best" departSpeed="max" from="-927616564" to="622925210"/>
    <trip id="veh774" type="veh_passenger" depart="774.98" departLane="best" departSpeed="max" from="-867932605" to="862436578"/>
    <trip id="veh777" type="veh_passenger" depart="777.99" departLane="best" departSpeed="max" from="-702338881#1" to="623273954#1"/>
    <trip id="veh786" type="veh_passenger" depart="787.00" departLane="best" from="156637856#6" to="707825924#1"/>
    <trip id="veh802" type="veh_passenger" depart="803.02" departLane="best" departSpeed="max" from="-849627297" to="156636201#3"/>
    <trip id="veh815" type="veh_passenger" depart="816.04" departLane="best" departSpeed="max" from="-714094143" to="-156468880#1"/>
    <trip id="veh816" type="veh_passenger" depart="817.04" departLane="best" from="544692855#1" to="-930568340"/>
    <trip id="veh826" type="veh_passenger" depart="827.05" departLane="best" departSpeed="max" from="896406962" to="-730932517#0"/>
    <trip id="veh828" type="veh_passenger" depart="829.05" departLane="best" departSpeed="max" from="852278619" to="623699008#1"/>
    <trip id="veh860" type="veh_passenger" depart="861.09" departLane="best" from="-707855497#0" to="-688280145#0"/>
    <trip id="veh861" type="veh_passenger" depart="862.09" departLane="best" departSpeed="max" from="623295050" to="623280185"/>
    <trip id="veh862" type="veh_passenger" depart="863.10" departLane="best" departSpeed="max" from="40052526#0" to="622942871"/>
    <trip id="veh863" type="veh_passenger" depart="864.10" departLane="best" departSpeed="max" from="156661661#0" to="-622637457"/>
    <trip id="veh867" type="veh_passenger" depart="868.10" departLane="best" from="-623031541#0" to="623037112"/>
    <trip id="veh868" type="veh_passenger" depart="869.10" departLane="best" from="-693779318" to="-658721810#4"/>
    <trip id="veh876" type="veh_passenger" depart="877.11" departLane="best" departSpeed="max" from="-872049401" to="-623281956"/>
    <trip id="veh886" type="veh_passenger" depart="887.13" departLane="best" from="156468828#0" to="866647149"/>
    <trip id="veh887" type="veh_passenger" depart="888.13" departLane="best" from="702338894#3" to="-964565628#0"/>
    <trip id="veh903" type="veh_passenger" depart="904.15" departLane="best" departSpeed="max" from="-929712411" to="-622646680"/>
    <trip id="veh913" type="veh_passenger" depart="914.16" departLane="best" departSpeed="max" from="-702338882" to="-623276520"/>
    <trip id="veh917" type="veh_passenger" depart="918.17" departLane="best" departSpeed="max" from="-1104557854#1" to="622165868"/>
    <trip id="veh928" type="veh_passenger" depart="929.18" departLane="best" departSpeed="max" from="-930489447" to="156468869"/>
    <trip id="veh933" type="veh_passenger" depart="934.19" departLane="best" departSpeed="max" from="-156636265" to="156636268#2"/>
    <trip id="veh946" type="veh_passenger" depart="947.20" departLane="best" from="-156468935#0" to="964530090"/>
    <trip id="veh950" type="veh_passenger" depart="951.21" departLane="best" departSpeed="max" from="623281961" to="930495535"/>
    <trip id="veh955" type="veh_passenger" depart="956.21" departLane="best" departSpeed="max" from="622179736" to="156468871"/>
    <trip id="veh961" type="veh_passenger" depart="962.22" departLane="best" departSpeed="max" from="622220421" to="156468926#2"/>
    <trip id="veh965" type="veh_passenger" depart="966.23" departLane="best" departSpeed="max" from="622936099" to="-156661774#2"/>
    <trip id="veh972" type="veh_passenger" depart="973.24" departLane="best" departSpeed="max" from="-860895752#2" to="-623031540"/>
    <trip id="veh973" type="veh_passenger" depart="974.24" departLane="best" departSpeed="max" from="-623276514" to="835280902#2"/>
    <trip id="veh982" type="veh_passenger" depart="983.25" departLane="best" from="707573758#4" to="862437622"/>
    <trip id="veh989" type="veh_passenger" depart="990.26" departLane="best" departSpeed="max" from="-930495326" to="707855502#1"/>
    <trip id="veh997" type="veh_passenger" depart="998.27" departLane="best" departSpeed="max" from="622936097" to="-622633295"/>
    <trip id="veh999" type="veh_passenger" depart="1000.27" departLane="best" departSpeed="max" from="156637842#0" to="848723586#1"/>
    <trip id="veh1002" type="veh_passenger" depart="1003.27" departLane="best" departSpeed="max" from="-930544559" to="848703931#1"/>
    <trip id="veh1003" type="veh_passenger" depart="1004.27" departLane="best" from="-707825916" to="927629983"/>
    <trip id="veh1011" type="veh_passenger" depart="1012.28" departLane="best" from="-835280902#0" to="-623292560#1"/>
    <trip id="veh1015" type="veh_passenger" depart="1016.29" departLane="best" departSpeed="max" from="-862445031" to="156636255"/>
    <trip id="veh1031" type="veh_passenger" depart="1032.31" departLane="best" departSpeed="max" from="-862439869" to="707825927"/>
    <trip id="veh1032" type="veh_passenger" depart="1033.31" departLane="best" from="-623292560#2" to="623273950#1"/>
    <trip id="veh1033" type="veh_passenger" depart="1034.31" departLane="best" from="-1080509826#0" to="156465542"/>
    <trip id="veh1046" type="veh_passenger" depart="1047.33" departLane="best" departSpeed="max" from="-862436577" to="156636278"/>
    <trip id="veh1055" type="veh_passenger" depart="1056.34" departLane="best" from="156468951#6" to="727417410"/>
    <trip id="veh1069" type="veh_passenger" depart="1070.36" departLane="best" from="-40057063#2" to="956664425"/>
    <trip id="veh1081" type="veh_passenger" depart="1082.37" departLane="best" departSpeed="max" from="-156636309#1" to="-622179750"/>
    <trip id="veh1101" type="veh_passenger" depart="1102.40" departLane="best" from="156637676#7" to="-622646684"/>
    <trip id="veh1110" type="veh_passenger" depart="1111.41" departLane="best" departSpeed="max" from="866839022" to="928200696"/>
    <trip id="veh1118" type="veh_passenger" depart="1119.42" departLane="best" departSpeed="max" from="860895738#0" to="-928072121"/>
    <trip id="veh1119" type="veh_passenger" depart="1120.42" departLane="best" departSpeed="max" from="622654541#0" to="-862439870#0"/>
    <trip id="veh1133" type="veh_passenger" depart="1134.44" departLane="best" departSpeed="max" from="622164039" to="-689077113#0"/>
    <trip id="veh1140" type="veh_passenger" depart="1141.45" departLane="best" departSpeed="max" from="156636268#0" to="156636393#3"/>
    <trip id="veh1146" type="veh_passenger" depart="1147.46" departLane="best" from="-156661752#7" to="870642418"/>
    <trip id="veh1149" type="veh_passenger" depart="1150.46" departLane="best" departSpeed="max" from="-930918558" to="-964509669"/>
    <trip id="veh1183" type="veh_passenger" depart="1184.50" departLane="best" departSpeed="max" from="-691574538#1" to="-870649001#1"/>
    <trip id="veh1195" type="veh_passenger" depart="1196.52" departLane="best" departSpeed="max" from="156468826#0" to="-156661777#2"/>
    <trip id="veh1207" type="veh_passenger" depart="1208.53" departLane="best" from="156636356#1" to="-680569935#0"/>
    <trip id="veh1226" type="veh_passenger" depart="1227.56" departLane="best" departSpeed="max" from="707573761#0" to="-156637831#0"/>
    <trip id="veh1227" type="veh_passenger" depart="1228.56" departLane="best" from="156465512#0" to="-623658535#0"/>
    <trip id="veh1228" type="veh_passenger" depart="1229.56" departLane="best" departSpeed="max" from="850416601#0" to="-707599061#0"/>
    <trip id="veh1231" type="veh_passenger" depart="1232.56" departLane="best" from="622940396#1" to="623295052#1"/>
    <trip id="veh1233" type="veh_passenger" depart="1234.57" departLane="best" from="-835280901#0" to="-156468973#0"/>
    <trip id="veh1237" type="veh_passenger" depart="1238.57" departLane="best" departSpeed="max" from="-707825929" to="156637687"/>
    <trip id="veh1251" type="veh_passenger" depart="1252.59" departLane="best" departSpeed="max" from="-623295048" to="622179743#0"/>
    <trip id="veh1252" type="veh_passenger" depart="1253.59" departLane="best" departSpeed="max" from="622646683" to="-1035037246#0"/>
    <trip id="veh1259" type="veh_passenger" depart="1260.60" departLane="best" from="622940386#1" to="-156661661#0"/>
    <trip id="veh1264" type="veh_passenger" depart="1265.61" departLane="best" departSpeed="max" from="156465606#0" to="-153714063#2"/>
    <trip id="veh1267" type="veh_passenger" depart="1268.61" departLane="best" departSpeed="max" from="-486480481" to="-849645988"/>
    <trip id="veh1269" type="veh_passenger" depart="1270.61" departLane="best" from="-156636356#7" to="-156639216#12"/>
    <trip id="veh1274" type="veh_passenger" depart="1275.62" departLane="best" from="156468852#0" to="156661721#1"/>
    <trip id="veh1281" type="veh_passenger" depart="1282.63" departLane="best" departSpeed="max" from="860895745" to="154774092#17"/>
    <trip id="veh1287" type="veh_passenger" depart="1288.64" departLane="best" departSpeed="max" from="-848703931#1" to="622927454#1"/>
    <trip id="veh1290" type="veh_passenger" depart="1291.64" departLane="best" departSpeed="max" from="-156468963#9" to="-623295052#0"/>
    <trip id="veh1301" type="veh_passenger" depart="1302.65" departLane="best" departSpeed="max" from="622633292" to="623295048"/>
    <trip id="veh1304" type="veh_passenger" depart="1305.66" departLane="best" departSpeed="max" from="-927629983" to="156661777#8"/>
    <trip id="veh1315" type="veh_passenger" depart="1316.67" departLane="best" from="-156468935#1" to="623276514"/>
    <trip id="veh1316" type="veh_passenger" depart="1317.67" departLane="best" from="156636196#1" to="-156636317#0"/>
    <trip id="veh1347" type="veh_passenger" depart="1348.71" departLane="best" departSpeed="max" from="622936107" to="-156661665"/>
    <trip id="veh1349" type="veh_passenger" depart="1350.71" departLane="best" departSpeed="max" from="-964564155" to="-156468946#6"/>
    <trip id="veh1352" type="veh_passenger" depart="1353.72" departLane="best" departSpeed="max" from="707855515" to="156465632#2"/>
    <trip id="veh1363" type="veh_passenger" depart="1364.73" departLane="best" departSpeed="max" from="156636323#0" to="-622179751"/>
    <trip id="veh1383" type="veh_passenger" depart="1384.76" departLane="best" departSpeed="max" from="-623718978" to="680494696#1"/>
    <trip id="veh1395" type="veh_passenger" depart="1396.77" departLane="best" from="156661772#3" to="-623276513#0"/>
    <trip id="veh1397" type="veh_passenger" depart="1398.78" departLane="best" from="156468828#4" to="-156468958#0"/>
    <trip id="veh1403" type="veh_passenger" depart="1404.78" departLane="best" from="-835280901#7" to="156468926#4"/>
    <trip id="veh1414" type="veh_passenger" depart="1415.80" departLane="best" from="-156468870#0" to="964564155"/>
    <trip id="veh1440" type="veh_passenger" depart="1441.83" departLane="best" departSpeed="max" from="866836068" to="549104716#2"/>
    <trip id="veh1460" type="veh_passenger" depart="1461.86" departLane="best" departSpeed="max" from="-623712025#1" to="-156661729#0"/>
    <trip id="veh1480" type="veh_passenger" depart="1481.88" departLane="best" from="622936088" to="623295048"/>
    <trip id="veh1486" type="veh_passenger" depart="1487.89" departLane="best" departSpeed="max" from="622179736" to="156661725#0"/>
    <trip id="veh1489" type="veh_passenger" depart="1490.89" departLane="best" departSpeed="max" from="-156636309#1" to="707825928"/>
    <trip id="veh1512" type="veh_passenger" depart="1513.92" departLane="best" departSpeed="max" from="-866555943" to="954363309"/>
    <trip id="veh1522" type="veh_passenger" depart="1523.93" departLane="best" departSpeed="max" from="-862445032" to="-555898299"/>
    <trip id="veh1535" type="veh_passenger" depart="1536.95" departLane="best" departSpeed="max" from="707855515" to="-156465562#0"/>
    <trip id="veh1558" type="veh_passenger" depart="1559.98" departLane="best" from="156636344#0" to="-675171988#7"/>
    <trip id="veh1559" type="veh_passenger" depart="1560.98" departLane="best" from="-622192307" to="857953563"/>
    <trip id="veh1581" type="veh_passenger" depart="1583.01" departLane="best" from="-156468935#1" to="954363309"/>
    <trip id="veh1588" type="veh_passenger" depart="1590.02" departLane="best" from="622165874#1" to="622926016#2"/>
    <trip id="veh1589" type="veh_passenger" depart="1591.02" departLane="best" departSpeed="max" from="622936084" to="622179735#2"/>
    <trip id="veh1594" type="veh_passenger" depart="1596.03" departLane="best" departSpeed="max" from="622936105" to="-622940391#0"/>
    <trip id="veh1597" type="veh_passenger" depart="1599.03" departLane="best" departSpeed="max" from="137220000" to="707830787#0"/>
    <trip id="veh1599" type="veh_passenger" depart="1601.03" departLane="best" from="-622646686" to="-156637856#6"/>
    <trip id="veh1602" type="veh_passenger" depart="1604.04" departLane="best" departSpeed="max" from="-707825924#1" to="-156637721"/>
    <trip id="veh1605" type="veh_passenger" depart="1607.04" departLane="best" from="-707595863#2" to="-623292556#1"/>
    <trip id="veh1614" type="veh_passenger" depart="1616.05" departLane="best" departSpeed="max" from="-862437625" to="156636323#1"/>
    <trip id="veh1625" type="veh_passenger" depart="1627.06" departLane="best" departSpeed="max" from="866839023" to="-707855517"/>
    <trip id="veh1638" type="veh_passenger" depart="1640.08" departLane="best" from="-835280901#8" to="-622633289"/>
    <trip id="veh1645" type="veh_passenger" depart="1647.09" departLane="best" from="702338881#0" to="-623281954#4"/>
    <trip id="veh1651" type="veh_passenger" depart="1653.10" departLane="best" departSpeed="max" from="-930495904" to="-622179736"/>
    <trip id="veh1657" type="veh_passenger" depart="1659.11" departLane="best" from="622927460#2" to="-198802025#3"/>
    <trip id="veh1658" type="veh_passenger" depart="1660.11" departLane="best" from="-156661733#1" to="-156661719"/>
    <trip id="veh1686" type="veh_passenger" depart="1688.14" departLane="best" departSpeed="max" from="622617341#0" to="-156468944#0"/>
    <trip id="veh1697" type="veh_passenger" depart="1699.16" departLane="best" departSpeed="max" from="622646684" to="622920590#2"/>
    <trip id="veh1699" type="veh_passenger" depart="1701.16" departLane="best" from="156468946#7" to="930495535"/>
    <trip id="veh1706" type="veh_passenger" depart="1708.17" departLane="best" departSpeed="max" from="930494486" to="-156468925#0"/>
    <trip id="veh1709" type="veh_passenger" depart="1711.17" departLane="best" from="689810899" to="-156636282#0"/>
    <trip id="veh1710" type="veh_passenger" depart="1712.17" departLane="best" departSpeed="max" from="-964562628" to="-623273946"/>
    <trip id="veh1711" type="veh_passenger" depart="1713.17" departLane="best" departSpeed="max" from="870649002" to="-156468880#0"/>
    <trip id="veh1718" type="veh_passenger" depart="1720.18" departLane="best" from="-156637856#2" to="-849656096"/>
    <trip id="veh1727" type="veh_passenger" depart="1729.19" departLane="best" departSpeed="max" from="-930495326" to="622192310#2"/>
    <trip id="veh1729" type="veh_passenger" depart="1731.20" departLane="best" departSpeed="max" from="623276526#0" to="-622940390"/>
    <trip id="veh1732" type="veh_passenger" depart="1734.20" departLane="best" departSpeed="max" from="156465565#0" to="623034409#1"/>
    <trip id="veh1734" type="veh_passenger" depart="1736.20" departLane="best" from="-40057063#6" to="623280173#2"/>
    <trip id="veh1735" type="veh_passenger" depart="1737.20" departLane="best" departSpeed="max" from="622936084" to="-156661721#0"/>
    <trip id="veh1742" type="veh_passenger" depart="1744.21" departLane="best" departSpeed="max" from="623295052#0" to="-870649001#0"/>
    <trip id="veh1743" type="veh_passenger" depart="1745.21" departLane="best" from="622165865#1" to="927622662"/>
    <trip id="veh1752" type="veh_passenger" depart="1754.23" departLane="best" from="927651525#1" to="862437629"/>
    <trip id="veh1759" type="veh_passenger" depart="1761.24" departLane="best" departSpeed="max" from="622654574" to="867931810"/>
    <trip id="veh1771" type="veh_passenger" depart="1773.25" departLane="best" departSpeed="max" from="-156465539" to="-549095292#1"/>
    <trip id="veh1783" type="veh_passenger" depart="1785.27" departLane="best" departSpeed="max" from="622192310#0" to="866555941"/>
    <trip id="veh1800" type="veh_passenger" depart="1802.29" departLane="best" departSpeed="max" from="622654562#0" to="-622179750"/>
    <trip id="veh1830" type="veh_passenger" depart="1832.33" departLane="best" departSpeed="max" from="-866647149" to="-156661665"/>
    <trip id="veh1851" type="veh_passenger" depart="1853.35" departLane="best" departSpeed="max" from="623718980" to="156468929#2"/>
    <trip id="veh1855" type="veh_passenger" depart="1857.36" departLane="best" departSpeed="max" from="-849645978" to="927513555"/>
    <trip id="veh1877" type="veh_passenger" depart="1879.39" departLane="best" from="156468951#3" to="-707547408"/>
    <trip id="veh1891" type="veh_passenger" depart="1893.40" departLane="best" from="156636291#1" to="-849627296"/>
    <trip id="veh1899" type="veh_passenger" depart="1901.41" departLane="best" departSpeed="max" from="622179742" to="707855494#0"/>
    <trip id="veh1923" type="veh_passenger" depart="1925.44" departLane="best" departSpeed="max" from="-156636255" to="486480478"/>
    <trip id="veh1924" type="veh_passenger" depart="1926.44" departLane="best" departSpeed="max" from="-623273947" to="-622617341#0"/>
    <trip id="veh1929" type="veh_passenger" depart="1931.45" departLane="best" departSpeed="max" from="-623273945" to="-622192349"/>
    <trip id="veh1934" type="veh_passenger" depart="1936.46" departLane="best" from="-156468870#0" to="-623288958"/>
    <trip id="veh1936" type="veh_passenger" depart="1938.46" departLane="best" from="156637814#1" to="156636265"/>
    <trip id="veh1938" type="veh_passenger" depart="1940.46" departLane="best" departSpeed="max" from="622179736" to="-623718965#0"/>
    <trip id="veh1948" type="veh_passenger" depart="1950.48" departLane="best" departSpeed="max" from="-156661681" to="-622654569"/>
    <trip id="veh1957" type="veh_passenger" depart="1959.49" departLane="best" departSpeed="max" from="623299877" to="549105254#0"/>
    <trip id="veh1985" type="veh_passenger" depart="1987.52" departLane="best" from="-622179735#2" to="-622936092"/>
    <trip id="veh1991" type="veh_passenger" depart="1993.53" departLane="best" from="-156468937#1" to="-622940390"/>
    <trip id="veh1993" type="veh_passenger" depart="1995.53" departLane="best" departSpeed="max" from="-850416598" to="930544560#1"/>
    <trip id="veh2006" type="veh_passenger" depart="2008.55" departLane="best" departSpeed="max" from="156465541" to="623350709"/>
    <trip id="veh2011" type="veh_passenger" depart="2013.56" departLane="best" from="156639215#12" to="-622646683"/>
    <trip id="veh2020" type="veh_passenger" depart="2022.57" departLane="best" from="623292556#1" to="623712029"/>
    <trip id="veh2025" type="veh_passenger" depart="2027.57" departLane="best" departSpeed="max" from="930668799" to="622646702"/>