<?xml version="1.0" encoding="UTF-8"?>

<!-- generated on 2022-11-05 16:30:43 by Eclipse SUMO duarouter Version 1.13.0
<configuration xmlns:xsi="http://www.w3.org/2001/XMLSchema-instance" xsi:noNamespaceSchemaLocation="http://sumo.dlr.de/xsd/duarouterConfiguration.xsd">

    <input>
        <net-file value="test/osm.net.xml"/>
        <route-files value="test/trips.trips.xml"/>
    </input>

    <output>
        <output-file value="test/routes.rou.xml"/>
        <alternatives-output value="test/routes.rou.alt.xml"/>
    </output>

    <time>
        <begin value="0"/>
        <end value="3600"/>
    </time>

    <report>
        <no-warnings value="true"/>
        <ignore-errors value="true"/>
        <no-step-log value="true"/>
    </report>

</configuration>
-->

<routes xmlns:xsi="http://www.w3.org/2001/XMLSchema-instance" xsi:noNamespaceSchemaLocation="http://sumo.dlr.de/xsd/routes_file.xsd">
    <vehicle id="7" depart="7.00">
        <route edges="156661761#1 -156661761#1 -870642414 -156661772#2 -156661772#0 156468937#4 702338894#1 702338894#2 702338894#3 702338894#4 702338894#5 -680494695#1 680494696#0 -156468926#4 -156468926#2 -156468926#1 -156468926#0 -622927459#0 -156468946#6 -156468946#5 -156468946#4 -156468946#3 -156468946#1 -156468946#0 835280901#3 156468838#0 156468838#1 156468838#2 156468838#3"/>
    </vehicle>
    <vehicle id="8" depart="8.00">
        <route edges="-622646688#2 -622646688#1 -622646688#0 689077113#3 -675172580#2 -675172580#1 -707830787#2 -707830787#1 848723587#0 848723587#1 -156636268#1 156636268#1"/>
    </vehicle>
    <vehicle id="13" depart="13.00">
        <route edges="-156636196#1 156636196#1 156636196#3 156636196#4 156636196#5 156636196#6 156636196#7 156636196#9 156636196#10 156636196#11 -675172580#4 -675172580#2 -675172580#1 -707830787#2 -707830787#1 -707830787#0 -156636260#4"/>
    </vehicle>
    <vehicle id="32" depart="32.00">
        <route edges="624031716#1 -624029432 624029432 -624031716#1 -624031714#1 -624031714#0 369021723#7 369021723#8 369021723#9 369021723#10 874950720#1 -549103975#2 -549103975#1 -549103975#0 -707832701 -549103902 -156465648#11 -156465648#10 -156465648#9 -156465648#8 -156465648#7 -156465648#6 -156465648#5 -156465648#4 -623350706#1 623350706#1"/>
    </vehicle>
    <vehicle id="40" depart="40.00">
        <route edges="156468889#0 -156468889#0 156468973#1 156468973#2 156468973#3 156468973#4 -156468963#8 -156468963#7 -156468963#6 -156468963#5 -156468963#4 -156468963#3 -156468963#2 -156468963#0 -707595863#3 -707595863#2 -707595863#1 -707595863#0 707595864#1 707595864#2 -156468946#0 -835280901#2 -835280901#1 -835280901#0 -156468828#6 -156468828#5 -156468828#4 -156468828#3 -156468828#2 315103193#0 315103193#2 622940396#0 622940396#1 622940396#2 -707855502#2 -707855502#1 -707855502#0 -707855503#1 623273952#0 623273952#1 -623273952#1"/>
    </vehicle>
    <vehicle id="45" depart="45.00">
        <route edges="-156636384 -156636344#3 -156636344#2 -156636344#1 -156636344#0 156636260#0 156636260#2 156636260#3 156636260#4 707830787#0 707830787#1 707830787#2 675172580#1 675172580#2 675172580#4 675172580#5 835519426#1 835519426#2 848723580#1 848723580#2 -156637702 156639216#12"/>
    </vehicle>
    <vehicle id="52" depart="52.00">
        <route edges="-623292555#0 623292556#1 -623292560#2 -623292560#1 -623292560#0 -702338879#6 -702338879#4 -702338879#3 -702338879#2 -702338879#0 -544692855#1 -544692855#0 -870642407 -156661774#2 -156661774#1 -156661774#0 -714097908#1 -714097908#0 -156661665 156661748#0"/>
    </vehicle>
    <vehicle id="68" depart="68.00">
        <route edges="-156468889#3 -156468889#2 -156468889#1 -156468889#0 156468973#1 156468973#2 156468973#3 156468973#4 -156468963#8 -156468963#7 156468852#0 -702338894#5 -702338894#4 -702338894#3 -702338894#2 -702338894#1 -702338894#0 156661772#0 156661772#2 707599061#2 623280181"/>
    </vehicle>
    <vehicle id="70" depart="70.00">
        <route edges="-930506757#1 623276516 156661729#2 623276519 -156661752#7 -156661752#6 -707855494#0 -623276513#1 -707855495 -623276525#0 -198802025#7 -198802025#5 -198802025#4 -198802025#3 -198802025#2 -198802025#1 -198802025#0 623273956#4 622936089#4 622936089#5 622936089#6 622936088 -930492914#0 -156468951#1 -156468951#0 835280901#0 835280901#1 835280901#2 156468946#0 156468946#1 156468946#3 156468946#4 156468946#5 156468946#6 156468946#7 622927459#2 622927460#1 -156468925#1 156468846#0 156468861"/>
    </vehicle>
    <vehicle id="71" depart="71.00">
        <route edges="-623288964 623288964 -156661761#1 -870642414 -156661772#2 -156661772#0 702338889 702338892#2"/>
    </vehicle>
    <vehicle id="78" depart="78.00">
        <route edges="-675171988#5 675171988#5 675171988#7 -156636344#4 -156636344#3 -156636344#2 -156636344#1 -156636344#0 156636260#0 156636260#2"/>
    </vehicle>
    <vehicle id="79" depart="79.00">
        <route edges="-622927460#1 -622927460#0 -622927459#0 -156468946#6 -156468946#5 -156468946#4 -156468946#3 -156468946#1 -156468946#0 -835280901#2 -835280901#1 -835280901#0 -835280899 622617347#0 622617347#1 -835280897#0 -156468907#3 -156468907#2 622617340 -622617341#0"/>
    </vehicle>
    <vehicle id="80" depart="80.00">
        <route edges="-156468915#1 -156468870#1 156468975#1 156468975#2 680494695#1 -702338894#5 -702338894#4 -702338894#3 -702338894#2 -702338894#1 -702338894#0 -156468937#2 -156468937#1 -156468937#0 156661774#0 156661774#1 156661774#2 156661774#3 544692855#0 544692855#1 702338879#0 702338879#2 702338879#3 702338879#4 702338879#6 702338879#7 -623718965#1 -623718965#0 -156661662#6 -156661662#5 156661662#5"/>
    </vehicle>
    <vehicle id="95" depart="95.00">
        <route edges="-857953563 -156468838#4 -156468838#3 -156468838#2 -156468838#1 -156468838#0 835280901#4 156468872#0 156468872#1 707595863#0 156468920#0 156468920#1 156468920#2 -680494696#1 -680494696#0 680494695#1 -702338894#5 -702338894#4 -702338894#3 -702338894#2 -702338894#1 -702338894#0 156661772#0 156661772#2 156661772#3 156661761#1 -623288964"/>
    </vehicle>
    <vehicle id="106" depart="106.00">
        <route edges="-927516426 -707855498 156636260#4 707830787#0 707830787#1 707830787#2 675172580#1 675172580#2 675172580#4 675172580#5 835519426#1 835519426#2 848723580#1 848723580#2 848723579#2 156637823#0 -156637823#0 -848723579#2"/>
    </vehicle>
    <vehicle id="114" depart="114.00">
        <route edges="-198802025#1 198802025#1 850416599#0 -623273956#1 -623280170 -623281954#5 -623281954#4 -623281954#3 -623281954#2 -623281954#1 -623281954#0 156661662#5 156661662#6 156661662#8 -156661777#9 -156661777#8 -156661777#7 156661714#0 623280188 870647890"/>
    </vehicle>
    <vehicle id="119" depart="119.00">
        <route edges="156636225#2 -622165866 -1035037246#3 -1035037246#2 930665953 156639216#3 156639216#4 156639216#5 156639216#7 156639216#9 156639216#10 156639216#11 156637702 -848723579#0 -848723580#1 156637836#0"/>
    </vehicle>
    <vehicle id="129" depart="129.00">
        <route edges="-623288964 623288964 -156661761#1 -870642414 -156661772#2 -156661772#0 156468937#4 702338894#1 702338894#2 702338894#3 702338894#4 702338894#5 -680494695#1 680494696#0 -156468926#4 -156468926#2 -156468926#1 -156468926#0 -622927459#0 -156468946#6 -156468946#5 -156468946#4 -156468946#3 -156468946#1 -156468946#0 835280901#3 156468838#0 156468838#1 156468838#2 156468838#3 156468838#4 156468838#5 156468838#6 857953562"/>
    </vehicle>
    <vehicle id="130" depart="130.00">
        <route edges="689577467#2 -707857047 -622179735#2 -622179735#1 -622179735#0 -954363309 -707586056#3 -707586056#2 -707586056#1 -707586056#0 -709851437#1 -709851437#0 -835280901#8 -835280901#7 -835280901#6 -835280901#5 -835280901#4 -835280901#3 -835280901#2 -835280901#1 -835280901#0 156468951#0 156468951#1 156468951#2 156468951#3 156468951#4 156468951#5 156468951#6 156661777#1 156661777#2 156661777#3 156661777#4 156661777#5 156661777#7 156661777#8 156661777#9 623718965#1 702338876 707586058"/>
    </vehicle>
    <vehicle id="137" depart="137.00">
        <route edges="-156639215#7 -156639215#5 156636282#0 156636282#1 1035037246#0 930665953 156639216#3 156639216#4 156639216#5 -156637747#4 -156637747#3 -156637747#2 -156637747#1 -156637747#0 156637831#2 156637831#3 156637831#4 156637831#6 -707825932 -156637660#3 -156637660#2 156637697 -156637842#4 -156637721"/>
    </vehicle>
    <vehicle id="144" depart="144.00">
        <route edges="-858470244 856189882 40057063#2 40057063#3 709539640#1 709539640#2 -156468838#9 -156468838#8 -156468838#7 -156468838#6 -156468838#5 -156468838#4 -156468838#3 -156468838#2 -156468838#1 -156468838#0 -835280901#3 -835280901#2 -835280901#1 -835280901#0 156468951#0 156468951#1 930492914#0 -622936088 -622936089#6 -622936089#5 -622936089#4 -623273956#4 -623273956#3 -623273956#2 -623273956#1 -623280170 -623281954#5 -623281954#4"/>
    </vehicle>
    <vehicle id="147" depart="147.00">
        <route edges="622927459#2 -622927460#0 -622927459#0 -156468946#6 -156468946#5 -156468946#4 -156468946#3 -156468946#1 -156468946#0 835280901#3 835280901#4 156468872#0 156468872#1"/>
    </vehicle>
    <vehicle id="150" depart="150.00">
        <route edges="707825914#0 707825914#1 707595864#2 -156468946#0 835280901#3 156468838#0 156468838#1 156468838#2 156468838#3 156468838#4 156468838#5"/>
    </vehicle>
    <vehicle id="158" depart="158.00">
        <route edges="-848723579#2 -156637702 622165876#0 -156637831#7 -707825932 -156637660#3 -156637660#2 156637697 -156637842#4 156637842#4"/>
    </vehicle>
    <vehicle id="159" depart="159.00">
        <route edges="-156661777#7 -156661777#5 -156661777#4 -156661777#3 -156661777#2 -156661777#1 -156661777#0 -156468951#5 -156468951#4 -156468951#3 -156468951#2 -156468951#1 -156468951#0 -156468828#6 -156468828#5 -156468828#4 -156468828#3 1035037282 -156468935#1 -156468935#0 -156468880#1 850683978"/>
    </vehicle>
    <vehicle id="161" depart="161.00">
        <route edges="623712034#1 -623712034#1 -623712034#0 156661662#3 156661662#4 156661662#5 156661662#6 156661662#8 -156661777#9 -156661777#8 -156661777#7 -156661777#5 -156661777#4 -156661777#3 -156661777#2 -156661777#1 -156661777#0 -156468951#5 -156468951#4 -156468951#3 -156468951#2 -156468951#1 -156468951#0 835280901#0 835280901#1 835280901#2 835280901#3 835280901#4 156468872#0 156468872#1 707595864#1 707595864#2"/>
    </vehicle>
    <vehicle id="165" depart="165.00">
        <route edges="623712034#1 -623712034#1 -623712034#0 156661662#3 156661662#4 623281954#0 623281954#1 623281954#2 623281954#3 623281954#4 623281954#5 623280171#1 623273956#1 -850416599#0 198802025#2 198802025#3 198802025#4 198802025#5 198802025#7 623276525#0 623276525#1 623276513#1 -623276513#1"/>
    </vehicle>
    <vehicle id="167" depart="167.00">
        <route edges="675172580#5 835519426#1 835519426#2 156637836#0 156637836#2 689810899"/>
    </vehicle>
    <vehicle id="174" depart="174.00">
        <route edges="156661714#2 -156661714#2 -156661714#0 156661777#7 156661777#8 156661777#9 -623718965#0 -156661662#6 -156661662#5 623281954#0 623281954#1 623281954#2 623281954#3 623281954#4 623281954#5 623280171#1 623273956#1 623273956#2 623273956#3 198802025#0 -316271742#4 -316271742#3 622936086#0 622936086#1 -707855502#2"/>
    </vehicle>
    <vehicle id="192" depart="192.00">
        <route edges="-846316323 -156465509#0 156465589 156465606#1 623688258#1 623688258#3 623688258#4 623688258#5 153714067#1 289505448 156465605#2 -156465657#3 -156465657#2 -156465657#1 -156465644#4 -156465644#3 -156465644#1 -156465644#0 -872851076#0 -693781393#7 -693781393#5 -693781393#4 -693781393#2 -623364839"/>
    </vehicle>
    <vehicle id="197" depart="197.00">
        <route edges="-1031600821 623350706#5 -623299881#3 -623299881#2"/>
    </vehicle>
    <vehicle id="201" depart="201.00">
        <route edges="-930493662 -156468946#3 -156468946#1 -156468946#0 835280901#3 156468838#0 156468838#1 156468838#2 156468838#3 156468838#4 156468838#5 156468838#6 156468838#7 156468838#8 156468838#9 -709539640#2 -709539640#1 709539640#1"/>
    </vehicle>
    <vehicle id="214" depart="214.00">
        <route edges="622940384#0 -622940384#0 156468828#0 156468828#2 156468828#3 156468828#4 156468828#5 156468828#6 156468951#0 156468951#1 156468951#2 156468951#3 156468951#4 156468951#5 156468951#6 156661777#1 156661777#2 156661777#3 156661777#4 156661777#5 156661777#7 156661777#8 -707586058 -702338876 702338874 -702338879#6 -702338879#4 -702338879#3 -702338879#2 544692854#0 544692854#1 623292562#0"/>
    </vehicle>
    <vehicle id="215" depart="215.00">
        <route edges="-156636356#0 156636196#3 156636196#4 156636196#5 156636196#6 156636196#7 156636196#9 156636196#10 156636196#11 675172580#5 835519426#1 835519426#2 848723580#1 848723580#2 -156637702 -156639216#11 -156639216#10 -156639216#9 -156639216#7 -156639216#5 -156639216#4 -156639216#3 -930665953 -1035037246#0 -156636282#1 -849627295"/>
    </vehicle>
    <vehicle id="243" depart="243.00">
        <route edges="-850683978 156468880#1 156468935#0 156468935#1 -1035037282 -156468828#2 315103193#0 315103193#2 622940396#0 622940396#1 622940396#2 -707855502#2 -707855502#1 -707855502#0 -707855503#1 623273950#1"/>
    </vehicle>
    <vehicle id="258" depart="258.00">
        <route edges="-623273956#4 623273956#4 622936089#4 622936089#5 622936089#6 622936088 -930492914#0 -156468951#1 -156468951#0 835280901#0 835280901#1 835280901#2 835280901#3 835280901#4 156468872#0 156468872#1 707595863#0 707595863#1 707595863#2 707595863#3 156468963#0 156468963#2 156468963#3 156468963#4 156468963#5 156468963#6 156468963#7 -156468963#7"/>
    </vehicle>
    <vehicle id="262" depart="262.00">
        <route edges="156661774#3 544692855#0 544692855#1 702338879#0 702338879#2 702338879#3 702338879#4 702338879#6 702338879#7 -623718965#1 -623718965#0 -156661662#6 -156661662#5 623281954#0 623281954#1 623281954#2 623281954#3 623281954#4 623281954#5 623280171#1 623273956#1 -850416599#0 198802025#2 198802025#3 198802025#4 198802025#5 198802025#7 623276525#0 623276525#1 623276513#1 707855494#0 -156661752#5 -156661752#4 -156661752#3 -156661752#2 623276522"/>
    </vehicle>
    <vehicle id="267" depart="267.00">
        <route edges="622165876#1 -622165876#1 -622165876#0 156637702 -848723579#0 -848723580#1 -848723580#0 -835519426#1 -835519426#0 -675172580#4 -675172580#2 -675172580#1 -707830787#2 -707830787#1 -707830787#0 -156636260#4 -156636260#3 -156636260#2 -156636260#0 156636344#0 156636344#1 156636344#2 -623290781 623290781"/>
    </vehicle>
    <vehicle id="278" depart="278.00">
        <route edges="-156637747#3 156637747#3 156637747#4 156639216#7 156639216#9 156639216#10 156639216#11 156637702 -848723579#0 -848723580#1 -848723580#0 -835519426#1 -835519426#0 -675172580#4 -675172580#2 -675172580#1 -707830787#2 -707830787#1 -707830787#0 -156636260#4 -156636260#3 -156636260#2 -156636260#0 156636344#0 156636344#1 156636344#2 156636344#3 156636344#4 -675171988#7 -675171988#5 -675171988#4 -675171988#3 930485532#0 930485532#1"/>
    </vehicle>
    <vehicle id="286" depart="286.00">
        <route edges="622646703#4 -1034769019#0 675172580#4 675172580#5 835519426#1 156636292 -156637676#18 -156637676#17 -156637676#16 -156637676#15 -156637676#13 -156637676#12 -156637676#11 -156637676#10 -156637676#9 -930653373#2 896406957"/>
    </vehicle>
    <vehicle id="298" depart="298.00">
        <route edges="622179743#0 -622192307 -707586056#4 -707586056#3 -707586056#2 -707586056#1 -707586056#0 -709851437#1 -709851437#0 -835280901#8 -835280901#7 -835280901#6 -835280901#5 -835280901#4 -835280901#3 -835280901#2 -835280901#1 -835280901#0 156468951#0 156468951#1 930492914#0 -622936088 -622936089#6 -622936089#5 -622936089#4 -623273956#4 -623273956#3 -623273956#2 -623273956#1 -623280170 -623281954#5 -623281954#4 -623281954#3 -623281954#2"/>
    </vehicle>
    <vehicle id="309" depart="309.00">
        <route edges="622192310#2 -707857047 -622179735#2 -622179735#1 -622179735#0 -954363309 -707586056#3 -707586056#2 -707586056#1 -707586056#0 -709851437#1 -709851437#0 -835280901#8 -835280901#7 -835280901#6 -835280901#5 -835280901#4 -835280901#3 -835280901#2 -835280901#1 -835280901#0 -156468828#6 -156468828#5 -156468828#4 -156468828#3 -156468828#2 315103193#0 315103193#2 622940396#0 622940396#1 622940396#2 -707855502#2 -623273954#3 -623273954#2 -623273954#1 -623273954#0 -623280166#1 -623280166#0"/>
    </vehicle>
    <vehicle id="321" depart="321.00">
        <route edges="622165866 -622165866 -1035037246#3 -1035037246#2 930665953 156639216#3 156639216#4 156639216#5 -156637747#4 -156637747#3 -156637747#2 -156637747#1 -156637747#0 156637831#2 156637831#3 156637831#4 156637831#6 -707825932 -156637660#3 -156637660#2 156637697 -156637842#4 -156637842#3 -156637842#2"/>
    </vehicle>
    <vehicle id="322" depart="322.00">
        <route edges="658721810#0 -658721810#0 -156465635#2 -156465635#0 -153714063#12 -153714063#10 -153714063#8 -153714063#7 -153714063#5 -153714063#4 -153714063#3 -153714063#2 153714063#2"/>
    </vehicle>
    <vehicle id="323" depart="323.00">
        <route edges="680494696#0 680494696#1 -156468920#2 -156468920#1 848703931#0 -156468968#1 156468968#1"/>
    </vehicle>
    <vehicle id="326" depart="326.00">
        <route edges="848723586#0 -848723586#0 156636291#2 -927629986 -927516429#2 -927516429#1 -927516429#0 -848723587#0 707830787#1 156636350#0 -964548654"/>
    </vehicle>
    <vehicle id="331" depart="331.00">
        <route edges="930647314#1 -622165866 -1035037246#3 -1035037246#2 930665953 156639216#3 156639216#4 156639216#5 -156637747#4 -156637747#3"/>
    </vehicle>
    <vehicle id="337" depart="337.00">
        <route edges="156637814#2 -706367045#1 -675171988#7 -675171988#5 -675171988#4 -675171988#3 -675171988#1 -675171988#0 -156637732#1 156637732#1"/>
    </vehicle>
    <vehicle id="345" depart="345.00">
        <route edges="622192310#2 -707857047 -622179735#2 -622179735#1 -622179735#0 -954363309 -707586056#3 -707586056#2 -707586056#1 -707586056#0 -709851437#1 -709851437#0 -835280901#8 -835280901#7 -835280901#6 -835280901#5 -835280901#4 -835280901#3 -835280901#2 -835280901#1 -835280901#0 156468951#0 156468951#1 156468951#2 156468951#3 156468951#4 156468951#5 156468951#6 156661777#1 156661777#2 156661777#3 156661777#4 156661777#5 156661714#0 623280188 870647890 -870647890"/>
    </vehicle>
    <vehicle id="348" depart="348.00">
        <route edges="315103193#2 -707855496#0 -315103193#0 156468828#2 156468828#3 156468828#4 156468828#5 156468828#6 835280901#0 835280901#1 835280901#2 835280901#3 156468838#0 156468838#1 156468838#2 156468838#3 156468838#4 857953563"/>
    </vehicle>
    <vehicle id="350" depart="350.00">
        <route edges="156661752#2 156661752#3 156661752#4 156661752#5 -707855494#0 -623276513#1 -707855495 -623276525#0 -198802025#7 -198802025#5 -198802025#4 -198802025#3 -198802025#2 -198802025#1 -198802025#0 623273956#4 622936089#4 622936089#5 622936089#6 622936088 -930492914#0 -156468951#1 -156468951#0 835280901#0 835280901#1 835280901#2 835280901#3"/>
    </vehicle>
    <vehicle id="353" depart="353.00">
        <route edges="622936104 -156468903#1 -156468903#0 -156468926#0 -622927459#0 -156468946#6 -156468946#5 -156468946#4 -156468946#3 -156468946#1 -156468946#0 -835280901#2 -835280901#1 -835280901#0 156468951#0 156468951#1 156468951#2 156468951#3"/>
    </vehicle>
    <vehicle id="358" depart="358.00">
        <route edges="-156465617#2 156465617#2 156465617#3 686562847#1 686562847#2 686562847#3 686562847#5 686562847#6 686562847#7 686562847#9 686562847#11 686562847#12 707832702 874950718#0 874950718#1 874950718#3 874950716#2 -707832701 -549103902 -156465648#11 -156465648#10 -156465648#9 -156465648#8 -156465648#7 -156465648#6 -156465648#5 -156465648#4 623350706#2 623350706#4 623350706#5 -623299881#3 -623299881#2 -623299881#0 -850392748#1 850392746 -850392746"/>
    </vehicle>
    <vehicle id="383" depart="383.00">
        <route edges="-866554846#1 -866554845 156468944#4 156468944#5 -622617347#1 -622617347#0 835280899 835280901#0 835280901#1 835280901#2 835280901#3 835280901#4 835280901#5 835280901#6 835280901#7 835280901#8 709851437#0 709851437#1 707586056#0 707586056#1 707586056#2 707586056#3 707586056#4 622192307 622179743#1"/>
    </vehicle>
    <vehicle id="384" depart="384.00">
        <route edges="-156637754 -156637850#0 -555897888#2 -555897888#1 -555897888#0 156636260#0 156636260#2 156636260#3 156636260#4 707830787#0 707830787#1 707830787#2 675172580#1 675172580#2 675172580#4 675172580#5 835519426#1 835519426#2 848723580#1 848723580#2 -156637702 156639216#12 156639216#13 927651525#1"/>
    </vehicle>
    <vehicle id="386" depart="386.00">
        <route edges="-198802025#4 -198802025#3 -198802025#2 -198802025#1 -198802025#0 623273956#4 622936089#4 622936089#5 622936089#6 622936088 -930492914#0 -156468951#1 -156468951#0 835280901#0 835280901#1 835280901#2 156468946#0 156468946#1 156468946#3 156468946#4 156468946#5 156468946#6 156468946#7 156468926#0 156468926#1 156468870#0 156468870#1 156468870#2"/>
    </vehicle>
    <vehicle id="389" depart="389.00">
        <route edges="-927651525#0 -156639216#12 156637702 -848723579#0 -848723580#1 -848723580#0 156636292 -156637676#18 -156637676#17 -156637676#16 -156637676#15 -156637676#13 -156637676#12 -707573765#1 -707573765#0 -156637746#2"/>
    </vehicle>
    <vehicle id="394" depart="394.00">
        <route edges="156468828#2 156468828#3 156468828#4 156468828#5 156468828#6 835280901#0 835280901#1 835280901#2 835280901#3 835280901#4 835280901#5 835280901#6 835280901#7 835280901#8 709851437#0 709851437#1 707586056#0 707586056#1 707586056#2 707586056#3 -707586056#3"/>
    </vehicle>
    <vehicle id="397" depart="397.00">
        <route edges="-623350706#5 -623350706#4 -623350706#2 156465648#4 156465648#5 156465648#6 156465648#7 156465648#8 156465648#9 -623699008#5 -623699008#3 -623699008#2 -623699008#1 549105254#0 708167924#0 623354001#0 623354001#1 623354001#2 623688271"/>
    </vehicle>
    <vehicle id="410" depart="410.00">
        <route edges="623712034#3 -623712034#0 156661662#3 156661662#4 156661662#5 156661662#6 156661662#8 623718965#1 702338874 -702338879#6 -702338879#4 -702338879#3 -702338879#2 -702338879#0 -544692855#1 -544692855#0 -870642407 -156661774#2 -156661774#1 -156661774#0 156468937#0 156468937#1 156468937#2 156468937#4 702338894#1 -622927462#1 -707599059"/>
    </vehicle>
    <vehicle id="413" depart="413.00">
        <route edges="-156465606#1 -156465589 707855513#1 156465509#2 156465509#4"/>
    </vehicle>
    <vehicle id="420" depart="420.00">
        <route edges="-675172580#1 -707830787#2 -707830787#1 -707830787#0 -156636260#4 -156636260#3 -156636260#2 -156636260#0 555897888#0"/>
    </vehicle>
    <vehicle id="426" depart="426.00">
        <route edges="-156468889#0 156468973#1 156468973#2 156468973#3 156468973#4 -156468963#8 -156468963#7 156468852#0 -702338894#5 -702338894#4 -702338894#3 -702338894#2 -702338894#1 -702338894#0 -156468937#2 -156468937#1 -156468937#0 156661774#0 156661774#1 156661774#2 156661774#3 544692855#0 544692855#1 702338879#0 702338879#2 702338879#3 702338879#4 702338879#6 702338879#7 -623718965#1 -623718965#0 -156661662#6 -156661662#5 156661662#5"/>
    </vehicle>
    <vehicle id="428" depart="428.00">
        <route edges="622936089#6 -622936089#6 -622936089#5 -622936089#4 -623273956#4 -850416601#1"/>
    </vehicle>
    <vehicle id="435" depart="435.00">
        <route edges="156468925#0 156468925#1 622927460#2 622936104 -156468903#1 156468975#0 156468975#1 156468975#2 680494695#1 -702338894#5 -702338894#4 -702338894#3 -702338894#2 -702338894#1 -702338894#0 -156468937#2 -156468937#1 -156468937#0 156661774#0 156661774#1 156661774#2 156661774#3 544692855#0 544692855#1 702338879#0 702338879#2 702338879#3 702338879#4 702338879#6 702338879#7 -623718965#1 -623718965#0 -156661662#6 -156661662#5 -156661662#4 -156661662#3 -156661662#2 623712025#0 623712024"/>
    </vehicle>
    <vehicle id="437" depart="437.00">
        <route edges="675171988#5 675171988#7 -156636344#4 -156636344#3 -156636344#2 -156636344#1 -156636344#0 156636260#0 156636260#2 156636260#3 156636260#4 707830787#0 707830787#1 707830787#2 675172580#1 675172580#2 675172580#4 675172580#5 835519426#1 835519426#2 156637836#0 156637836#2"/>
    </vehicle>
    <vehicle id="448" depart="448.00">
        <route edges="-964530088 -156661777#1 -156661777#0 -156468951#5 -156468951#4 -156468951#3 -156468951#2 -156468951#1 -156468951#0 835280901#0 835280901#1 835280901#2 156468946#0 156468946#1 156468946#3 156468946#4 156468946#5 156468946#6 156468946#7 -622927458#2 -622927458#1"/>
    </vehicle>
    <vehicle id="458" depart="458.00">
        <route edges="156641491#0 156641491#1 -156636344#4 -156636344#3 -156636344#2 -156636344#1 -156636344#0 156636260#0 156636260#2 156636260#3 156636260#4 707830787#0 707830787#1 707830787#2 675172580#1 675172580#2 675172580#4 675172580#5 835519426#1 835519426#2 848723580#1 848723580#2 -156637702 622165876#0 -156637831#7 -707825932 -156637660#3 -156637660#2 156637697 -156637842#4 156637842#4"/>
    </vehicle>
    <vehicle id="471" depart="471.00">
        <route edges="623688258#0 623688258#1 623688258#3 623688258#4 623688258#5 153714067#1 289505448 156465605#2 -156465657#3 -156465657#2 -156465657#1 -156465644#4 -156465644#3 -156465644#1 -156465644#0 -872851076#0 -693781393#7 -693781393#5 -693781393#4 -693781393#2 -693781393#1 -693781393#0 -707855511#1 -658721810#6 -658721810#4 -658721810#3 -658721810#2 -658721810#0 -156465635#2 -156465635#0 -153714063#12 -153714063#10 -684497935#3 -684497935#2 623037113"/>
    </vehicle>
    <vehicle id="472" depart="472.00">
        <route edges="-675172580#1 675172580#1 675172580#2 675172580#4 675172580#5 835519426#1 835519426#2 848723580#1 848723580#2 -156637702 -156639216#11 -156639216#10 -156639216#9 -156639216#7 -156639216#5 -156639216#4 -156639216#3 -930665953 -1035037246#0 -156636282#1 -849627295 -156637716#0"/>
    </vehicle>
    <vehicle id="474" depart="474.00">
        <route edges="866555942#0 -866555942#0 973299123 156468828#0 156468828#2 156468828#3 156468828#4 156468828#5 156468828#6 835280901#0 835280901#1 835280901#2 835280901#3 835280901#4 835280901#5 835280901#6 622192349 -622192351#0 691574540"/>
    </vehicle>
    <vehicle id="493" depart="493.00">
        <route edges="849656096 156637831#1 156637831#2 156637831#3 156637831#4 156637831#6 156637831#7 -622165876#0 156637702 -848723579#0 -848723580#1 -848723580#0 -835519426#1 -835519426#0 -675172580#4 -675172580#2 -675172580#1 622654564 -622646703#0 -835519428#0"/>
    </vehicle>
    <vehicle id="497" depart="497.00">
        <route edges="852247710#1 -156465553#0 156465648#8 156465648#9 156465648#10 156465648#11 156465648#12 707832701 -874950716#2 -874950716#0 -874950718#1 -874950718#0 -707832702 -686562847#12 -686562847#11 -686562847#9 -686562847#7 -686562847#6 -686562847#5 -686562847#3 -686562847#2 -686562847#1 -156465617#3 -156465617#2 189038445 -156465582#1 -156465582#0 -156465596#0"/>
    </vehicle>
    <vehicle id="500" depart="500.00">
        <route edges="-156636278 -156636356#4 -156636356#2 -156636356#1 -156636356#0 156636196#3 156636196#4 156637746#0 156637746#1 156637746#2 707573765#0 707573765#1 -156637676#11 -156637676#10 -156637676#9 -156637676#7 486480478"/>
    </vehicle>
    <vehicle id="501" depart="501.00">
        <route edges="156465651 156465627#1 156465627#2 684497935#1 684497935#2 684497935#3 153714063#10 153714063#12 156465635#0 156465635#2 658721810#0 658721810#2 658721810#3 658721810#4 658721810#6 707855511#1 693781393#0 693781393#1 693781393#2 693781393#4 693781393#5 693781393#7 156465660#4 156465644#0 156465644#1 156465644#3 156465644#4 156465657#1 156465657#2 156465623#0 156465623#1 156465623#2 928070366#0 928073830"/>
    </vehicle>
    <vehicle id="502" depart="502.00">
        <route edges="-702338881#0 702338881#0 -156661714#4 -156661714#3 -156661714#2 -156661714#0 -156661777#5 -156661777#4 -156661777#3 -156661777#2 -156661777#1 -156661777#0 -156468951#5 -156468951#4 -156468951#3 -156468951#2 -156468951#1 -156468951#0 -156468828#6 -156468828#5 -156468828#4 -156468828#3 -156468828#2 315103193#0 315103193#2 707855496#1 -707855496#1"/>
    </vehicle>
    <vehicle id="507" depart="507.00">
        <route edges="623292555#1 156661714#2 156661714#3 156661714#4 -702338881#0 623288964 -156661761#1 -870642414 -156661772#2 -156661772#0 156468937#4 702338894#1 702338894#2 702338894#3 702338894#4 702338894#5 -680494695#1 680494696#0 -156468926#4 -156468926#2 -156468926#1 -156468926#0 622927459#2 -622936097"/>
    </vehicle>
    <vehicle id="509" depart="509.00">
        <route edges="-156468889#1 -156468889#0 156468973#1 156468973#2 156468973#3 156468973#4 -156468963#8 -156468963#7 156468852#0 -702338894#5 -702338894#4 -702338894#3 -702338894#2 -702338894#1 -702338894#0 -156468937#2 -156468937#1 -156468937#0 156661774#0 156661774#1 156661774#2 156661720 623288961#1"/>
    </vehicle>
    <vehicle id="521" depart="521.00">
        <route edges="622936089#3 622936089#4 622936089#5 622936089#6 622936088 -930492914#0 -156468951#1 -156468951#0 835280901#0 835280901#1 835280901#2 835280901#3 835280901#4 835280901#5 835280901#6 835280901#7 835280901#8 709851437#0 709851437#1 707586056#0 707586056#1 707586056#2 707586056#3 954363309 622179735#0 -622179735#0 -954363309"/>
    </vehicle>
    <vehicle id="525" depart="525.00">
        <route edges="623281954#5 623280171#1 623273956#1 623273956#2 623273956#3 198802025#0 -316271742#4 -316271742#3 -316271742#2 -316271742#1 -316271742#0 -707855496#1 -707855496#0 -315103193#0 156468828#2 1035037282 -156468935#1 -156468935#0 -696547788 696547788"/>
    </vehicle>
    <vehicle id="532" depart="532.00">