<?xml version="1.0" encoding="UTF-8"?>
<!-- generated on 2022-11-05 16:30:43.307605 by randomTrips.py UNKNOWN
<configuration>
    <net-file value="test/osm.net.xml"/>
    <route-file value="test/routes.rou.xml"/>
    <output-trip-file value="test/trips.trips.xml"/>
</configuration>

-->
<routes xmlns:xsi="http://www.w3.org/2001/XMLSchema-instance" xsi:noNamespaceSchemaLocation="http://sumo.dlr.de/xsd/routes_file.xsd">
    <trip id="0" depart="0.00" from="156661667#0" to="-156465555#0"/>
    <trip id="1" depart="1.00" from="-623350705" to="-622633296#1"/>
    <trip id="2" depart="2.00" from="622920590#0" to="40057063#6"/>
    <trip id="3" depart="3.00" from="702338884" to="-156476474#0"/>
    <trip id="4" depart="4.00" from="-857953563" to="-156465582#1"/>
    <trip id="5" depart="5.00" from="-622633296#2" to="156465514"/>
    <trip id="6" depart="6.00" from="-156465537#1" to="-622192307"/>
    <trip id="7" depart="7.00" from="156661761#1" to="156468838#3"/>
    <trip id="8" depart="8.00" from="-622646688#2" to="156636268#1"/>
    <trip id="9" depart="9.00" from="623712010" to="-1104557854#0"/>
    <trip id="10" depart="10.00" from="623688257#1" to="622179743#1"/>
    <trip id="11" depart="11.00" from="-680569935#0" to="-198802025#3"/>
    <trip id="12" depart="12.00" from="857957730" to="-624321765"/>
    <trip id="13" depart="13.00" from="-156636196#1" to="-156636260#4"/>
    <trip id="14" depart="14.00" from="624303162#0" to="156637676#11"/>
    <trip id="15" depart="15.00" from="623688258#4" to="622936089#5"/>
    <trip id="16" depart="16.00" from="156465644#0" to="927651525#1"/>
    <trip id="17" depart="17.00" from="-707832702" to="156468880#1"/>
    <trip id="18" depart="18.00" from="623990930#1" to="156637834#3"/>
    <trip id="19" depart="19.00" from="624333606#0" to="156468975#2"/>
    <trip id="20" depart="20.00" from="622192330" to="-156465646#4"/>
    <trip id="21" depart="21.00" from="-622927454#1" to="-623353990"/>
    <trip id="22" depart="22.00" from="-156468946#6" to="-622654574"/>
    <trip id="23" depart="23.00" from="-156636292" to="-623281964"/>
    <trip id="24" depart="24.00" from="156639216#4" to="-686803697#1"/>
    <trip id="25" depart="25.00" from="-707825911" to="-622572862#0"/>
    <trip id="26" depart="26.00" from="-623292555#1" to="860579389"/>
    <trip id="27" depart="27.00" from="156661752#3" to="156637717"/>
    <trip id="28" depart="28.00" from="-369021723#9" to="622936089#3"/>
    <trip id="29" depart="29.00" from="-320605239#4" to="-706367045#1"/>
    <trip id="30" depart="30.00" from="930485532#0" to="156661733#2"/>
    <trip id="31" depart="31.00" from="156468852#1" to="41574020#8"/>
    <trip id="32" depart="32.00" from="624031716#1" to="623350706#1"/>
    <trip id="33" depart="33.00" from="-622927458#1" to="-156465594#3"/>
    <trip id="34" depart="34.00" from="-624290000#0" to="-623276518"/>
    <trip id="35" depart="35.00" from="-622572870#1" to="862436576#0"/>
    <trip id="36" depart="36.00" from="686562847#3" to="-623975455"/>
    <trip id="37" depart="37.00" from="171745556#1" to="-707855488"/>
    <trip id="38" depart="38.00" from="707855501" to="-896406957"/>
    <trip id="39" depart="39.00" from="-623288960" to="-622940373"/>
    <trip id="40" depart="40.00" from="156468889#0" to="-623273952#1"/>
    <trip id="41" depart="41.00" from="156468975#2" to="708167926"/>
    <trip id="42" depart="42.00" from="-835280909#1" to="-622617337"/>
    <trip id="43" depart="43.00" from="964548654" to="156465551"/>
    <trip id="44" depart="44.00" from="-156476489#2" to="-156465647#4"/>
    <trip id="45" depart="45.00" from="-156636384" to="156639216#12"/>
    <trip id="46" depart="46.00" from="623299876#0" to="-848711272#0"/>
    <trip id="47" depart="47.00" from="-156468852#1" to="-707573764#1"/>
    <trip id="48" depart="48.00" from="954363309" to="156465641#1"/>
    <trip id="49" depart="49.00" from="867932607#0" to="693779307"/>
    <trip id="50" depart="50.00" from="-153714063#3" to="622654564"/>
    <trip id="51" depart="51.00" from="40057063#4" to="156465653#1"/>
    <trip id="52" depart="52.00" from="-623292555#0" to="156661748#0"/>
    <trip id="53" depart="53.00" from="-156637660#3" to="-852278615"/>
    <trip id="54" depart="54.00" from="-874950720#0" to="866647153"/>
    <trip id="55" depart="55.00" from="686562847#12" to="-623273954#1"/>
    <trip id="56" depart="56.00" from="154774092#1" to="-40057081#1"/>
    <trip id="57" depart="57.00" from="707855493#1" to="702338880"/>
    <trip id="58" depart="58.00" from="-623972674" to="156661729#5"/>
    <trip id="59" depart="59.00" from="156637660#0" to="-156661779"/>
    <trip id="60" depart="60.00" from="622960849" to="156465657#4"/>
    <trip id="61" depart="61.00" from="623280173#0" to="156465644#4"/>
    <trip id="62" depart="62.00" from="-1034769017#1" to="-623990946#1"/>
    <trip id="63" depart="63.00" from="-156465506#9" to="850416599#0"/>
    <trip id="64" depart="64.00" from="688280145#0" to="624333586#1"/>
    <trip id="65" depart="65.00" from="-623990941#3" to="-156468838#0"/>
    <trip id="66" depart="66.00" from="686803697#0" to="862445027"/>
    <trip id="67" depart="67.00" from="-156468973#1" to="1049580739"/>
    <trip id="68" depart="68.00" from="-156468889#3" to="623280181"/>
    <trip id="69" depart="69.00" from="623037110" to="-156637856#2"/>
    <trip id="70" depart="70.00" from="-930506757#1" to="156468861"/>
    <trip id="71" depart="71.00" from="-623288964" to="702338892#2"/>
    <trip id="72" depart="72.00" from="-857957001" to="-622572869#0"/>
    <trip id="73" depart="73.00" from="156465647#0" to="622936089#6"/>
    <trip id="74" depart="74.00" from="-622179743#0" to="-623972670"/>
    <trip id="75" depart="75.00" from="930665953" to="189038445"/>
    <trip id="76" depart="76.00" from="-866554846#1" to="156465595#1"/>
    <trip id="77" depart="77.00" from="-156637747#3" to="-622637457"/>
    <trip id="78" depart="78.00" from="-675171988#5" to="156636260#2"/>
    <trip id="79" depart="79.00" from="-622927460#1" to="-622617341#0"/>
    <trip id="80" depart="80.00" from="-156468915#1" to="156661662#5"/>
    <trip id="81" depart="81.00" from="-622927458#1" to="769241261"/>
    <trip id="82" depart="82.00" from="624333601" to="-156468926#4"/>
    <trip id="83" depart="83.00" from="-622940387" to="377279907#5"/>
    <trip id="84" depart="84.00" from="-622579168" to="-156639215#9"/>
    <trip id="85" depart="85.00" from="835519428#0" to="156468963#0"/>
    <trip id="86" depart="86.00" from="-930492914#0" to="623364844"/>
    <trip id="87" depart="87.00" from="623688258#5" to="-549104716#2"/>
    <trip id="88" depart="88.00" from="-156636225#2" to="-849690487"/>
    <trip id="89" depart="89.00" from="-858470244" to="-928073828"/>
    <trip id="90" depart="90.00" from="622646682" to="377295075#1"/>
    <trip id="91" depart="91.00" from="928070943#0" to="-156636291#0"/>
    <trip id="92" depart="92.00" from="-846387731#0" to="-624321769#1"/>
    <trip id="93" depart="93.00" from="624333606#0" to="-622940390"/>
    <trip id="94" depart="94.00" from="-518647848" to="-866836068"/>
    <trip id="95" depart="95.00" from="-857953563" to="-623288964"/>
    <trip id="96" depart="96.00" from="-623273952#2" to="849645984"/>
    <trip id="97" depart="97.00" from="-867929174" to="693779315"/>
    <trip id="98" depart="98.00" from="156468826#0" to="-156465650"/>
    <trip id="99" depart="99.00" from="976736700#1" to="624333601"/>
    <trip id="100" depart="100.00" from="866839022" to="849731898"/>
    <trip id="101" depart="101.00" from="624311808" to="-327251255#1"/>
    <trip id="102" depart="102.00" from="-964568361" to="-622572874"/>
    <trip id="103" depart="103.00" from="-835519426#0" to="-156468838#2"/>
    <trip id="104" depart="104.00" from="-707855491" to="930493662"/>
    <trip id="105" depart="105.00" from="-623288964" to="623364833#1"/>
    <trip id="106" depart="106.00" from="-927516426" to="-848723579#2"/>
    <trip id="107" depart="107.00" from="857957730" to="964514306"/>
    <trip id="108" depart="108.00" from="156468838#9" to="622646700#2"/>
    <trip id="109" depart="109.00" from="-156661777#8" to="-623658539#0"/>
    <trip id="110" depart="110.00" from="866839021" to="156476468#2"/>
    <trip id="111" depart="111.00" from="156465648#3" to="623273950#2"/>
    <trip id="112" depart="112.00" from="-156468828#4" to="156636196#3"/>
    <trip id="113" depart="113.00" from="154774092#4" to="686562847#12"/>
    <trip id="114" depart="114.00" from="-198802025#1" to="870647890"/>
    <trip id="115" depart="115.00" from="-156468951#0" to="-518647846#2"/>
    <trip id="116" depart="116.00" from="156636231" to="40057063#1"/>
    <trip id="117" depart="117.00" from="-622936110#0" to="-156637814#0"/>
    <trip id="118" depart="118.00" from="702338879#2" to="-622940370"/>
    <trip id="119" depart="119.00" from="156636225#2" to="156637836#0"/>
    <trip id="120" depart="120.00" from="-850683978" to="156636196#10"/>
    <trip id="121" depart="121.00" from="156465594#0" to="857957001"/>
    <trip id="122" depart="122.00" from="-622265613" to="622633299#2"/>
    <trip id="123" depart="123.00" from="-622942871" to="-707855488"/>
    <trip id="124" depart="124.00" from="369021723#3" to="-623712034#0"/>
    <trip id="125" depart="125.00" from="-624292369#0" to="623276512#0"/>
    <trip id="126" depart="126.00" from="-156468926#0" to="-874950723"/>
    <trip id="127" depart="127.00" from="973299121" to="964558781"/>
    <trip id="128" depart="128.00" from="-156468926#4" to="-622572872"/>
    <trip id="129" depart="129.00" from="-623288964" to="857953562"/>
    <trip id="130" depart="130.00" from="689577467#2" to="707586058"/>
    <trip id="131" depart="131.00" from="-707599061#1" to="-307440564#0"/>
    <trip id="132" depart="132.00" from="623990943#2" to="622552874"/>
    <trip id="133" depart="133.00" from="156637676#15" to="930506757#1"/>
    <trip id="134" depart="134.00" from="156661777#9" to="-153714063#10"/>
    <trip id="135" depart="135.00" from="623967573#4" to="-623712019"/>
    <trip id="136" depart="136.00" from="320605239#2" to="860895741"/>
    <trip id="137" depart="137.00" from="-156639215#7" to="-156637721"/>
    <trip id="138" depart="138.00" from="-156636356#1" to="156468888#4"/>
    <trip id="139" depart="139.00" from="-623295063#0" to="156637676#16"/>
    <trip id="140" depart="140.00" from="622572878#1" to="-622220414"/>
    <trip id="141" depart="141.00" from="156639216#11" to="-623273954#3"/>
    <trip id="142" depart="142.00" from="1035037246#2" to="769241261"/>
    <trip id="143" depart="143.00" from="624292795#0" to="-156636196#4"/>
    <trip id="144" depart="144.00" from="-858470244" to="-623281954#4"/>
    <trip id="145" depart="145.00" from="-1035037254#1" to="623295052#1"/>
    <trip id="146" depart="146.00" from="156641491#1" to="-623273950#0"/>
    <trip id="147" depart="147.00" from="622927459#2" to="156468872#1"/>
    <trip id="148" depart="148.00" from="-860895751" to="-153714063#5"/>
    <trip id="149" depart="149.00" from="-156468931#4" to="707825914#1"/>
    <trip id="150" depart="150.00" from="707825914#0" to="156468838#5"/>
    <trip id="151" depart="151.00" from="623990946#0" to="156476499#5"/>
    <trip id="152" depart="152.00" from="-156661752#2" to="-156637850#0"/>
    <trip id="153" depart="153.00" from="-623990942#1" to="708179900"/>
    <trip id="154" depart="154.00" from="623353993" to="693779307"/>
    <trip id="155" depart="155.00" from="707586056#3" to="-622572864#0"/>
    <trip id="156" depart="156.00" from="-623273952#1" to="-156636344#1"/>
    <trip id="157" depart="157.00" from="623280176#1" to="707825921#1"/>
    <trip id="158" depart="158.00" from="-848723579#2" to="156637842#4"/>
    <trip id="159" depart="159.00" from="-156661777#7" to="850683978"/>
    <trip id="160" depart="160.00" from="624333618#1" to="928070943#0"/>
    <trip id="161" depart="161.00" from="623712034#1" to="707595864#2"/>
    <trip id="162" depart="162.00" from="-156465513#1" to="622942871"/>
    <trip id="163" depart="163.00" from="-624333619" to="852247710#1"/>
    <trip id="164" depart="164.00" from="623364830" to="693779325"/>
    <trip id="165" depart="165.00" from="623712034#1" to="-623276513#1"/>
    <trip id="166" depart="166.00" from="623292556#1" to="-156636393#1"/>
    <trip id="167" depart="167.00" from="675172580#5" to="689810899"/>
    <trip id="168" depart="168.00" from="-622646703#0" to="623993480#1"/>
    <trip id="169" depart="169.00" from="-927633668" to="-623967570"/>
    <trip id="170" depart="170.00" from="623353989" to="-622646688#3"/>
    <trip id="171" depart="171.00" from="-156465510#4" to="-622164039"/>
    <trip id="172" depart="172.00" from="-624333604#1" to="693779328#1"/>
    <trip id="173" depart="173.00" from="866647152#0" to="-623290781"/>
    <trip id="174" depart="174.00" from="156661714#2" to="-707855502#2"/>
    <trip id="175" depart="175.00" from="927651524#0" to="156465648#9"/>
    <trip id="176" depart="176.00" from="848711273" to="-156637721"/>
    <trip id="177" depart="177.00" from="867174256#1" to="-40057081#1"/>
    <trip id="178" depart="178.00" from="860895752#0" to="-623273956#4"/>
    <trip id="179" depart="179.00" from="-156636356#7" to="-852247710#1"/>
    <trip id="180" depart="180.00" from="622646680" to="-623972682"/>
    <trip id="181" depart="181.00" from="156636356#6" to="156465564#1"/>
    <trip id="182" depart="182.00" from="-707857045" to="156468973#4"/>
    <trip id="183" depart="183.00" from="-623276519" to="622572877#0"/>
    <trip id="184" depart="184.00" from="-1035037245" to="849668386"/>
    <trip id="185" depart="185.00" from="156465646#2" to="622646703#3"/>
    <trip id="186" depart="186.00" from="622927460#2" to="377292933#1"/>
    <trip id="187" depart="187.00" from="-707573758#3" to="-156468926#0"/>
    <trip id="188" depart="188.00" from="320605239#5" to="-624031716#0"/>
    <trip id="189" depart="189.00" from="-624031714#0" to="675171995"/>
    <trip id="190" depart="190.00" from="622579182" to="-623712034#1"/>
    <trip id="191" depart="191.00" from="-623990943#3" to="-709851437#0"/>
    <trip id="192" depart="192.00" from="-846316323" to="-623364839"/>
    <trip id="193" depart="193.00" from="-156637834#2" to="-846387731#0"/>
    <trip id="194" depart="194.00" from="848723584#0" to="40057081#1"/>
    <trip id="195" depart="195.00" from="707599061#2" to="156637823#3"/>
    <trip id="196" depart="196.00" from="-623972689#1" to="156468846#2"/>
    <trip id="197" depart="197.00" from="-1031600821" to="-623299881#2"/>
    <trip id="198" depart="198.00" from="-860895908" to="156476475#1"/>
    <trip id="199" depart="199.00" from="156661780" to="-928070366#3"/>
    <trip id="200" depart="200.00" from="-866836069" to="-622572874"/>
    <trip id="201" depart="201.00" from="-930493662" to="709539640#1"/>
    <trip id="202" depart="202.00" from="623353993" to="-377279907#0"/>
    <trip id="203" depart="203.00" from="-156468968#0" to="156465592#0"/>
    <trip id="204" depart="204.00" from="156639215#7" to="-624303162#0"/>
    <trip id="205" depart="205.00" from="623967575#0" to="623273956#3"/>
    <trip id="206" depart="206.00" from="369021723#8" to="-622637457"/>
    <trip id="207" depart="207.00" from="-622165875#0" to="-156465551"/>
    <trip id="208" depart="208.00" from="-623031541#1" to="-930665953"/>
    <trip id="209" depart="209.00" from="624321768#2" to="-156468935#0"/>
    <trip id="210" depart="210.00" from="-849668386" to="156641491#1"/>
    <trip id="211" depart="211.00" from="-549104716#1" to="622165876#0"/>
    <trip id="212" depart="212.00" from="1049846155" to="-622936099"/>
    <trip id="213" depart="213.00" from="189723046#0" to="-1049585752"/>
    <trip id="214" depart="214.00" from="622940384#0" to="623292562#0"/>
    <trip id="215" depart="215.00" from="-156636356#0" to="-849627295"/>
    <trip id="216" depart="216.00" from="-377293504#1" to="867932607#0"/>
    <trip id="217" depart="217.00" from="156465567" to="-156465648#8"/>
    <trip id="218" depart="218.00" from="-623273952#0" to="675172580#1"/>
    <trip id="219" depart="219.00" from="-927518105" to="623967575#0"/>
    <trip id="220" depart="220.00" from="327250868#1" to="930520071#1"/>
    <trip id="221" depart="221.00" from="156636260#0" to="866554845"/>
    <trip id="222" depart="222.00" from="702338879#7" to="156637747#4"/>
    <trip id="223" depart="223.00" from="622579178" to="156465513#0"/>
    <trip id="224" depart="224.00" from="623990932#2" to="156468846#2"/>
    <trip id="225" depart="225.00" from="707573765#0" to="623031541#1"/>
    <trip id="226" depart="226.00" from="-930504124" to="-623034412"/>
    <trip id="227" depart="227.00" from="-623037112" to="156661726#1"/>
    <trip id="228" depart="228.00" from="623037110" to="156465613#0"/>
    <trip id="229" depart="229.00" from="156637842#0" to="-623280183#0"/>
    <trip id="230" depart="230.00" from="-156468944#2" to="-623299876#0"/>
    <trip id="231" depart="231.00" from="-623295055#0" to="-623990932#2"/>
    <trip id="232" depart="232.00" from="156465647#4" to="-156661667#1"/>
    <trip id="233" depart="233.00" from="-622936087" to="555898496"/>
    <trip id="234" depart="234.00" from="622192371" to="-156468888#4"/>
    <trip id="235" depart="235.00" from="-848723584#1" to="156468828#4"/>
    <trip id="236" depart="236.00" from="-850371429" to="-622559996#0"/>
    <trip id="237" depart="237.00" from="-852278618#0" to="732942810"/>
    <trip id="238" depart="238.00" from="156468975#0" to="622165874#1"/>
    <trip id="239" depart="239.00" from="624333591#2" to="623288962"/>
    <trip id="240" depart="240.00" from="-707855496#0" to="-1080509826#0"/>
    <trip id="241" depart="241.00" from="-693779320#2" to="623276516"/>
    <trip id="242" depart="242.00" from="624321774#0" to="866647152#2"/>
    <trip id="243" depart="243.00" from="-850683978" to="623273950#1"/>
    <trip id="244" depart="244.00" from="156465655#2" to="156637676#1"/>
    <trip id="245" depart="245.00" from="-622646688#2" to="-622617339"/>
    <trip id="246" depart="246.00" from="-865224034#1" to="-156465578#0"/>
    <trip id="247" depart="247.00" from="-658721810#3" to="40059399"/>
    <trip id="248" depart="248.00" from="-848703929" to="-327250916#0"/>
    <trip id="249" depart="249.00" from="-928103086" to="-156637850#0"/>
    <trip id="250" depart="250.00" from="156637823#4" to="-156465565#0"/>
    <trip id="251" depart="251.00" from="-769241261" to="156468937#4"/>
    <trip id="252" depart="252.00" from="-156465539" to="156661752#6"/>
    <trip id="253" depart="253.00" from="-156639216#2" to="-927570625"/>
    <trip id="254" depart="254.00" from="-156465648#11" to="-702338894#5"/>
    <trip id="255" depart="255.00" from="-622572872" to="-624029423"/>
    <trip id="256" depart="256.00" from="622956268" to="-702338894#5"/>
    <trip id="257" depart="257.00" from="622940386#1" to="624333586#1"/>
    <trip id="258" depart="258.00" from="-623273956#4" to="-156468963#7"/>
    <trip id="259" depart="259.00" from="-156465506#9" to="156465657#4"/>
    <trip id="260" depart="260.00" from="999476738" to="-624333609#0"/>
    <trip id="261" depart="261.00" from="156661772#0" to="623354005"/>
    <trip id="262" depart="262.00" from="156661774#3" to="623276522"/>
    <trip id="263" depart="263.00" from="850392748#0" to="-622192320"/>
    <trip id="264" depart="264.00" from="-156465508#3" to="-156661777#9"/>
    <trip id="265" depart="265.00" from="-156637831#6" to="377292920"/>
    <trip id="266" depart="266.00" from="156468907#3" to="-622579189"/>
    <trip id="267" depart="267.00" from="622165876#1" to="623290781"/>
    <trip id="268" depart="268.00" from="-327251252#1" to="156637692"/>
    <trip id="269" depart="269.00" from="622936101" to="-156637702"/>
    <trip id="270" depart="270.00" from="623967578#0" to="874950718#3"/>
    <trip id="271" depart="271.00" from="-156636356#6" to="-156465562#0"/>
    <trip id="272" depart="272.00" from="-624029430" to="40057081#2"/>
    <trip id="273" depart="273.00" from="857961860" to="-707855493#0"/>
    <trip id="274" depart="274.00" from="622572865#4" to="-156468946#0"/>
    <trip id="275" depart="275.00" from="518647846#2" to="156639216#11"/>
    <trip id="276" depart="276.00" from="-156636310" to="623295055#4"/>
    <trip id="277" depart="277.00" from="624321768#5" to="156636374#1"/>
    <trip id="278" depart="278.00" from="-156637747#3" to="930485532#1"/>
    <trip id="279" depart="279.00" from="623281954#3" to="-624333604#0"/>
    <trip id="280" depart="280.00" from="-860895752#1" to="-693779322"/>
    <trip id="281" depart="281.00" from="156465506#5" to="-624321774#0"/>
    <trip id="282" depart="282.00" from="624321768#1" to="624031715"/>
    <trip id="283" depart="283.00" from="-156636344#3" to="870647890"/>
    <trip id="284" depart="284.00" from="156639216#4" to="624321768#6"/>
    <trip id="285" depart="285.00" from="622220421" to="-852278620"/>
    <trip id="286" depart="286.00" from="622646703#4" to="896406957"/>
    <trip id="287" depart="287.00" from="-623295047" to="623990926#0"/>
    <trip id="288" depart="288.00" from="156465646#1" to="1035037254#3"/>
    <trip id="289" depart="289.00" from="-865224033" to="622936098"/>
    <trip id="290" depart="290.00" from="-623292560#1" to="684497935#2"/>
    <trip id="291" depart="291.00" from="623990934" to="-156476468#1"/>
    <trip id="292" depart="292.00" from="689810899" to="-622936099"/>
    <trip id="293" depart="293.00" from="-928070943#1" to="156637745#1"/>
    <trip id="294" depart="294.00" from="-707855491" to="-156465577#0"/>
    <trip id="295" depart="295.00" from="624321768#8" to="-40276264#1"/>
    <trip id="296" depart="296.00" from="-622572874" to="623966630#2"/>
    <trip id="297" depart="297.00" from="-680569935#0" to="707595863#2"/>
    <trip id="298" depart="298.00" from="622179743#0" to="-623281954#2"/>
    <trip id="299" depart="299.00" from="-153714063#14" to="865224033"/>
    <trip id="300" depart="300.00" from="-156468973#1" to="622654541#1"/>
    <trip id="301" depart="301.00" from="1035037246#2" to="623280173#1"/>
    <trip id="302" depart="302.00" from="518647846#2" to="156661774#0"/>
    <trip id="303" depart="303.00" from="1035037270#2" to="623712025#1"/>
    <trip id="304" depart="304.00" from="-156636196#10" to="-622617348#2"/>
    <trip id="305" depart="305.00" from="544692854#1" to="-623967573#1"/>
    <trip id="306" depart="306.00" from="156468970#1" to="-930647051"/>
    <trip id="307" depart="307.00" from="156465623#3" to="-849627296"/>
    <trip id="308" depart="308.00" from="622936089#4" to="-624289987"/>
    <trip id="309" depart="309.00" from="622192310#2" to="-623280166#0"/>
    <trip id="310" depart="310.00" from="-623273956#1" to="-156637823#0"/>
    <trip id="311" depart="311.00" from="-549095292#2" to="-156637794#2"/>
    <trip id="312" depart="312.00" from="156465641#0" to="623281953"/>
    <trip id="313" depart="313.00" from="-40276264#2" to="-622579182"/>
    <trip id="314" depart="314.00" from="-964560604" to="622927454#1"/>
    <trip id="315" depart="315.00" from="887725967" to="156465627#1"/>
    <trip id="316" depart="316.00" from="-623364844" to="-156636323#1"/>
    <trip id="317" depart="317.00" from="-549104716#0" to="-622646688#2"/>
    <trip id="318" depart="318.00" from="-40057063#4" to="-154774092#9"/>
    <trip id="319" depart="319.00" from="156465635#0" to="-623280181"/>
    <trip id="320" depart="320.00" from="874950716#2" to="156468888#5"/>
    <trip id="321" depart="321.00" from="622165866" to="-156637842#2"/>
    <trip id="322" depart="322.00" from="658721810#0" to="153714063#2"/>
    <trip id="323" depart="323.00" from="680494696#0" to="156468968#1"/>
    <trip id="324" depart="324.00" from="-929509818" to="-857961862"/>
    <trip id="325" depart="325.00" from="-40059746" to="-156465653#2"/>
    <trip id="326" depart="326.00" from="848723586#0" to="-964548654"/>
    <trip id="327" depart="327.00" from="623972665#2" to="-707855513#0"/>
    <trip id="328" depart="328.00" from="-156468929#1" to="156639216#9"/>
    <trip id="329" depart="329.00" from="-156465653#3" to="-156661772#2"/>
    <trip id="330" depart="330.00" from="156468903#0" to="-623966630#1"/>
    <trip id="331" depart="331.00" from="930647314#1" to="-156637747#3"/>
    <trip id="332" depart="332.00" from="623034411" to="156637676#5"/>
    <trip id="333" depart="333.00" from="623295055#3" to="-622646683"/>
    <trip id="334" depart="334.00" from="156465592#1" to="-866839022"/>
    <trip id="335" depart="335.00" from="-867174256#0" to="691574540"/>
    <trip id="336" depart="336.00" from="930494183" to="-623967571"/>
    <trip id="337" depart="337.00" from="156637814#2" to="156637732#1"/>
    <trip id="338" depart="338.00" from="622927455" to="862449955"/>
    <trip id="339" depart="339.00" from="-622569044" to="-622572865#3"/>
    <trip id="340" depart="340.00" from="307440564#0" to="-297052882"/>
    <trip id="341" depart="341.00" from="-377292922" to="-156468944#2"/>
    <trip id="342" depart="342.00" from="-1035037246#3" to="-866839022"/>
    <trip id="343" depart="343.00" from="156636201#2" to="-623354001#1"/>
    <trip id="344" depart="344.00" from="-622936088" to="622572866"/>
    <trip id="345" depart="345.00" from="622192310#2" to="-870647890"/>
    <trip id="346" depart="346.00" from="41574020#4" to="849645986"/>
    <trip id="347" depart="347.00" from="623292559#1" to="156639215#10"/>
    <trip id="348" depart="348.00" from="315103193#2" to="857953563"/>
    <trip id="349" depart="349.00" from="-860579389" to="156468838#1"/>
    <trip id="350" depart="350.00" from="156661752#2" to="835280901#3"/>
    <trip id="351" depart="351.00" from="623990923" to="-156468929#1"/>
    <trip id="352" depart="352.00" from="-320899884#1" to="-623967574#2"/>
    <trip id="353" depart="353.00" from="622936104" to="156468951#3"/>
    <trip id="354" depart="354.00" from="-623712034#0" to="-156637834#2"/>
    <trip id="355" depart="355.00" from="44127768#0" to="622192349"/>
    <trip id="356" depart="356.00" from="849627306" to="156465508#1"/>
    <trip id="357" depart="357.00" from="1049837804" to="-156468963#2"/>
    <trip id="358" depart="358.00" from="-156465617#2" to="-850392746"/>
    <trip id="359" depart="359.00" from="-624321769#2" to="-622942880#0"/>
    <trip id="360" depart="360.00" from="-156476493#1" to="870655168"/>
    <trip id="361" depart="361.00" from="623993480#2" to="156468970#5"/>
    <trip id="362" depart="362.00" from="850416601#0" to="976736700#3"/>
    <trip id="363" depart="363.00" from="369021723#5" to="-623276526#0"/>
    <trip id="364" depart="364.00" from="-156465617#3" to="623280166#1"/>
    <trip id="365" depart="365.00" from="-929701264" to="198802025#2"/>
    <trip id="366" depart="366.00" from="707855513#0" to="-40276263"/>
    <trip id="367" depart="367.00" from="156476466#0" to="156661700"/>
    <trip id="368" depart="368.00" from="1049527092" to="-156636196#10"/>
    <trip id="369" depart="369.00" from="-689077113#3" to="-624292369#0"/>
    <trip id="370" depart="370.00" from="327253844#1" to="689577467#1"/>
    <trip id="371" depart="371.00" from="-624333606#5" to="555898041"/>
    <trip id="372" depart="372.00" from="-623712025#1" to="862437626"/>
    <trip id="373" depart="373.00" from="623965397#1" to="156468869"/>
    <trip id="374" depart="374.00" from="-927513555" to="-623972689#0"/>
    <trip id="375" depart="375.00" from="-624321769#5" to="927622662"/>
    <trip id="376" depart="376.00" from="-848703929" to="156465585#0"/>
    <trip id="377" depart="377.00" from="929712412#0" to="320605239#3"/>
    <trip id="378" depart="378.00" from="156465648#4" to="-835280899"/>
    <trip id="379" depart="379.00" from="-41574020#8" to="-686562847#0"/>
    <trip id="380" depart="380.00" from="622942885#1" to="156639215#12"/>
    <trip id="381" depart="381.00" from="622956264" to="-622220414"/>
    <trip id="382" depart="382.00" from="156465660#4" to="850392748#1"/>
    <trip id="383" depart="383.00" from="-866554846#1" to="622179743#1"/>
    <trip id="384" depart="384.00" from="-156637754" to="927651525#1"/>
    <trip id="385" depart="385.00" from="156637660#0" to="-622927462#0"/>
    <trip id="386" depart="386.00" from="-198802025#4" to="156468870#2"/>
    <trip id="387" depart="387.00" from="156468828#6" to="-156636196#9"/>
    <trip id="388" depart="388.00" from="930520075#1" to="835519426#2"/>
    <trip id="389" depart="389.00" from="-927651525#0" to="-156637746#2"/>
    <trip id="390" depart="390.00" from="623990941#2" to="156465506#3"/>
    <trip id="391" depart="391.00" from="622572872" to="156465549"/>
    <trip id="392" depart="392.00" from="-623299876#1" to="624333594#2"/>
    <trip id="393" depart="393.00" from="927570625" to="-622936097"/>
    <trip id="394" depart="394.00" from="156468828#2" to="-707586056#3"/>
    <trip id="395" depart="395.00" from="709531024" to="156465542"/>
    <trip id="396" depart="396.00" from="689077113#0" to="693779325"/>
    <trip id="397" depart="397.00" from="-623350706#5" to="623688271"/>
    <trip id="398" depart="398.00" from="-849688366" to="857956996"/>
    <trip id="399" depart="399.00" from="156465508#1" to="624029451"/>
    <trip id="400" depart="400.00" from="-623364842" to="-623699008#5"/>
    <trip id="401" depart="401.00" from="156476474#1" to="976736700#1"/>
    <trip id="402" depart="402.00" from="1035037254#2" to="-156661761#1"/>
    <trip id="403" depart="403.00" from="156465646#2" to="-624333594#0"/>
    <trip id="404" depart="404.00" from="156468828#5" to="156468832#1"/>
    <trip id="405" depart="405.00" from="-927516429#0" to="-623990941#3"/>
    <trip id="406" depart="406.00" from="-486480480" to="622179735#1"/>
    <trip id="407" depart="407.00" from="156468944#1" to="-622920593"/>
    <trip id="408" depart="408.00" from="623276526#0" to="-156465644#3"/>