<?xml version="1.0" encoding="UTF-8"?>

<!-- generated on 2022-11-12 20:47:44 by Eclipse SUMO duarouter Version 1.13.0
<configuration xmlns:xsi="http://www.w3.org/2001/XMLSchema-instance" xsi:noNamespaceSchemaLocation="http://sumo.dlr.de/xsd/duarouterConfiguration.xsd">

    <input>
        <net-file value="/Users/nutorbit/workspace/sumo/test/osm.net.xml"/>
        <route-files value="/Users/nutorbit/workspace/sumo/test/osm.passenger.trips.xml"/>
    </input>

    <output>
        <output-file value="routes.rou.xml"/>
        <alternatives-output value="routes.rou.alt.xml"/>
    </output>

    <time>
        <begin value="0"/>
        <end value="3600"/>
    </time>

    <report>
        <no-warnings value="true"/>
        <ignore-errors value="true"/>
        <no-step-log value="true"/>
    </report>

</configuration>
-->

<routes xmlns:xsi="http://www.w3.org/2001/XMLSchema-instance" xsi:noNamespaceSchemaLocation="http://sumo.dlr.de/xsd/routes_file.xsd">
    <vType id="veh_passenger" vClass="passenger"/>
    <vehicle id="veh0" type="veh_passenger" depart="0.00" departLane="best">
        <route edges="-404426089#0 -404426090#2 31302197#11 6229445#0 39351633#0 -367885354#5 -367885354#2 -367885354#1"/>
    </vehicle>
    <vehicle id="veh1" type="veh_passenger" depart="15.86" departLane="best">
        <route edges="31302218#0 18677921#0 176050262#11 176050262#17 31302197#0 31302197#4 31302197#5 31302197#8 31302197#11 31302197#14"/>
    </vehicle>
    <vehicle id="veh2" type="veh_passenger" depart="31.72" departLane="best" departSpeed="max">
        <route edges="6229793#0 -367885354#1 25771196#0 -367885355#2 -25771222#7"/>
    </vehicle>
    <vehicle id="veh3" type="veh_passenger" depart="47.59" departLane="best" departSpeed="max">
        <route edges="-176050263#5 -176050263#4 -176050263#3 -31302197#15 -31302197#13 -31302197#10 -31302197#7 -31302197#4 -31302197#3"/>
    </vehicle>
    <vehicle id="veh4" type="veh_passenger" depart="63.45" departLane="best">
        <route edges="25888232#1 -6229931#16 -6229931#15 -6229931#14 -6229931#13 -6229931#12 -6229931#10 -93221335#4 25771222#0 25771222#7 367885355#0 -25771196#2 367885354#0 367885354#2 367885354#3 -39351633#2 25771194#0"/>
    </vehicle>
    <vehicle id="veh5" type="veh_passenger" depart="79.31" departLane="best">
        <route edges="-31302197#13 -31302197#10 -31302197#7 -31302197#4 -31302197#3 93221335#0 25330858#0 7545433#0 25861573#0"/>
    </vehicle>
    <vehicle id="veh6" type="veh_passenger" depart="95.17" departLane="best">
        <route edges="404426090#3 -404426089#0 -404426090#2 -31302197#10 -31302197#7 -31302197#4 -31302197#3 -176050262#17 -176050262#16"/>
    </vehicle>
    <vehicle id="veh7" type="veh_passenger" depart="111.04" departLane="best">
        <route edges="404426090#0 -404426090#2 31302197#11 6229445#0 39351633#0 -367885354#5 -367885354#2 -367885354#1 25771196#0 -25771197#8 -25771197#4 -25771197#2 -25771197#1 31302218#0"/>
    </vehicle>
    <vehicle id="veh8" type="veh_passenger" depart="126.90" departLane="best">
        <route edges="6229931#16 -6229931#16 -6229931#15 -6229931#14 -6229931#13 -6229931#12 -6229931#10 -93221335#4 25771222#0 25771222#7 367885355#0 -25771196#2 367885354#0 367885354#2 -6229770"/>
    </vehicle>
    <vehicle id="veh9" type="veh_passenger" depart="142.76" departLane="best">
        <route edges="6229305#0 6229595#0 51423079#10 176050262#11 176050262#17 93221335#0 25330858#0 7545433#0 25861573#0"/>
    </vehicle>
    <vehicle id="veh10" type="veh_passenger" depart="158.62" departLane="best">
        <route edges="404426090#0 -404426090#2 31302197#11 31302197#14 6229523#0 380986446#0"/>
    </vehicle>
    <vehicle id="veh11" type="veh_passenger" depart="174.49" departLane="best">
        <route edges="-6229931#10 -93221335#4 25771222#0 25771222#7 367885355#0 -25771196#2 367885354#0 -367885354#1 25771196#0"/>
    </vehicle>
    <vehicle id="veh12" type="veh_passenger" depart="190.35" departLane="best" departSpeed="max">
        <route edges="44385336 -6229931#14 -6229931#13 -6229931#12 -6229931#10 -93221335#4 25771222#0 25771222#7 367885355#0 -25771196#2 367885354#0 367885354#2 367885354#3 -39351633#2 -26374484#2 26374484#1"/>
    </vehicle>
    <vehicle id="veh13" type="veh_passenger" depart="206.21" departLane="best">
        <route edges="6229595#0 -51423079#9 25771197#3 25771197#5"/>
    </vehicle>
    <vehicle id="veh14" type="veh_passenger" depart="222.07" departLane="best">
        <route edges="289756327#0 289754954#2 -6229931#10 -93221335#4 25771222#0 25771222#7 367885355#0 -25331371#3"/>
    </vehicle>
    <vehicle id="veh15" type="veh_passenger" depart="237.94" departLane="best">
        <route edges="-31302197#3 93221335#0 6229931#0 6229931#11 6229931#13 6229931#14 -44385336"/>
    </vehicle>
    <vehicle id="veh16" type="veh_passenger" depart="253.80" departLane="best">
        <route edges="-24686074 -6229931#18 -6229931#16 -6229931#15 -6229931#14 -6229931#13 -6229931#12 -6229931#10 -93221335#4 25771222#0 25771222#7 367885355#0 -25771196#2 367885354#0 367885354#2 367885354#3 -367885354#5"/>
    </vehicle>
    <vehicle id="veh17" type="veh_passenger" depart="269.66" departLane="best" departSpeed="max">
        <route edges="-25771194#3 -6229445#1 -31302197#13 404426090#0 404426089#0 -404426090#7"/>
    </vehicle>
    <vehicle id="veh18" type="veh_passenger" depart="285.52" departLane="best" departSpeed="max">
        <route edges="25888232#0 -24686074 -6229931#18 -6229931#16 -6229931#15 -6229931#14 -6229931#13 -6229931#12 -6229931#10 -93221335#4 25771222#0 25771222#7 367885355#0 -25771196#2 367885354#0 -6229793#0"/>
    </vehicle>
    <vehicle id="veh19" type="veh_passenger" depart="301.39" departLane="best">
        <route edges="-367885355#2 -25771222#7 -25771222#6 93221335#0 6229931#0 6229931#11 6229931#13 6229931#14 6229931#15 6229931#16 6229931#17 6229931#19"/>
    </vehicle>
    <vehicle id="veh20" type="veh_passenger" depart="317.25" departLane="best" departSpeed="max">
        <route edges="25888232#0 -24686074 -6229931#18 -6229931#16 -6229931#15 -6229931#14 -6229931#13 -6229931#12 -6229931#10 25330858#0 7545433#0 25861573#0"/>
    </vehicle>
    <vehicle id="veh21" type="veh_passenger" depart="333.11" departLane="best" departSpeed="max">
        <route edges="-25861573#2 -7545433#13 -30825103#4 -93221335#4 31302197#0 -6229793#6 -6229793#2"/>
    </vehicle>
    <vehicle id="veh22" type="veh_passenger" depart="348.97" departLane="best" departSpeed="max">
        <route edges="7624234 -367885354#5 -367885354#2 -367885354#1 25771196#0 -367885355#2 -25771222#7 -25771222#6 93221335#0 6229931#0 6229931#11 289754954#0 289755504#4"/>
    </vehicle>
    <vehicle id="veh23" type="veh_passenger" depart="364.83" departLane="best" departSpeed="max">
        <route edges="25331371#0 -25771196#2 367885354#0 6229793#1 6229793#3 31302197#4"/>
    </vehicle>
    <vehicle id="veh24" type="veh_passenger" depart="380.70" departLane="best">
        <route edges="51423079#10 176050262#11 176050262#17 31302197#0 31302197#4 31302197#5 31302197#8 404426090#0 404426089#0 404426089#1"/>
    </vehicle>
    <vehicle id="veh25" type="veh_passenger" depart="396.56" departLane="best">
        <route edges="-31302197#3 93221335#0 6229931#0 6229931#11 6229931#13 6229931#14 6229931#15 6229931#16 6229931#17 24686074 -24686074"/>
    </vehicle>
    <vehicle id="veh26" type="veh_passenger" depart="412.42" departLane="best" departSpeed="max">
        <route edges="-432427280#3 -32035133#14 -30825103#4 -93221335#4 31302197#0 31302197#4 31302197#5 31302197#8 404426090#0 404426089#0 -404426089#0"/>
    </vehicle>
    <vehicle id="veh27" type="veh_passenger" depart="428.28" departLane="best">
        <route edges="-30825103#4 6229931#0 6229931#11 6229931#13 6229931#14 6229931#15 6229931#16 6229931#17 6229931#19"/>
    </vehicle>
    <vehicle id="veh28" type="veh_passenger" depart="444.15" departLane="best" departSpeed="max">
        <route edges="6229770 -367885354#2 -367885354#1 25771196#0 -25771197#8 -25771197#4 51423079#0 -51423079#9"/>
    </vehicle>
    <vehicle id="veh29" type="veh_passenger" depart="460.01" departLane="best">
        <route edges="26374484#1 39351633#0 -367885354#5 -367885354#2 -367885354#1 25771196#0 -367885355#2 -25771222#7 -25771222#6 93221335#0 6229931#0 6229931#11 -6229931#12"/>
    </vehicle>
    <vehicle id="veh30" type="veh_passenger" depart="475.87" departLane="best">
        <route edges="6229793#1 -6229793#2 367885354#2 367885354#3 -39351633#2 -26374484#2 -6229523#2 176050263#0 176050263#4 176050263#5"/>
    </vehicle>
    <vehicle id="veh31" type="veh_passenger" depart="491.73" departLane="best">
        <route edges="-367885355#2 -25771222#7 -6229815#3 6229793#3 31302197#4 -403752974#3"/>
    </vehicle>
    <vehicle id="veh32" type="veh_passenger" depart="507.60" departLane="best" departSpeed="max">
        <route edges="25331371#0 -25771196#2 367885354#0 6229793#1 6229793#3 31302197#4 -403752974#3"/>
    </vehicle>
    <vehicle id="veh33" type="veh_passenger" depart="523.46" departLane="best">
        <route edges="25771197#3 25771197#5 -367885355#2 -25771222#7 -25771222#6 93221335#0 6229931#0 6229931#11 6229931#13"/>
    </vehicle>
    <vehicle id="veh34" type="veh_passenger" depart="539.32" departLane="best">
        <route edges="-6229931#16 -6229931#15 -6229931#14 -6229931#13 -6229931#12 -6229931#10 25330858#0 32035133#0 432427280#0 -432427280#3 -32035133#14"/>
    </vehicle>
    <vehicle id="veh35" type="veh_passenger" depart="555.18" departLane="best">
        <route edges="93221335#0 -93221335#4 31302197#0 31302197#4 31302197#5 31302197#8 31302197#11 31302197#14 176050263#0 201966215#0"/>
    </vehicle>
    <vehicle id="veh36" type="veh_passenger" depart="571.05" departLane="best" departSpeed="max">
        <route edges="-25771194#3 39351633#0 -367885354#5 -367885354#2 -367885354#1 25771196#0 -25331371#3"/>
    </vehicle>
    <vehicle id="veh37" type="veh_passenger" depart="586.91" departLane="best">
        <route edges="-25771196#2 367885354#0 -367885354#1 25771196#0 -367885355#2 -25771222#7 -25771222#6 93221335#0 6229931#0 6229931#11 289754954#0 289754954#1"/>
    </vehicle>
    <vehicle id="veh38" type="veh_passenger" depart="602.77" departLane="best" departSpeed="max">
        <route edges="403752974#0 -31302197#4 -31302197#3 93221335#0 6229931#0 6229931#11 6229931#13 6229931#14 6229931#15 6229931#16 6229931#17 -6229931#18"/>
    </vehicle>
    <vehicle id="veh39" type="veh_passenger" depart="618.63" departLane="best" departSpeed="max">
        <route edges="-189452753 -6229931#13 -6229931#12 -6229931#10 -93221335#4 31302197#0 -6229793#6"/>
    </vehicle>
    <vehicle id="veh40" type="veh_passenger" depart="634.50" departLane="best">
        <route edges="93221335#0 -93221335#4 25771222#0 25771222#7 367885355#0 -25771196#2 367885354#0 367885354#2 367885354#3 -39351633#2 25771194#0"/>
    </vehicle>
    <vehicle id="veh41" type="veh_passenger" depart="650.36" departLane="best">
        <route edges="7545433#0 -7545433#13 -30825103#4 -93221335#4 31302197#0 31302197#4 31302197#5 31302197#8 31302197#11 31302197#14 6229523#0"/>
    </vehicle>
    <vehicle id="veh42" type="veh_passenger" depart="666.22" departLane="best" departSpeed="max">
        <route edges="289755504#0 289756327#0 289754954#2 -6229931#10 -93221335#4 25771222#0 25771222#7 367885355#0 -25771196#2 367885354#0 367885354#2 367885354#3 -39351633#2 25771194#0"/>
    </vehicle>
    <vehicle id="veh43" type="veh_passenger" depart="682.08" departLane="best">
        <route edges="-367885355#2 -25771222#7 -25771222#6 93221335#0 6229931#0 6229931#11 289754954#0 289755504#4"/>
    </vehicle>
    <vehicle id="veh44" type="veh_passenger" depart="697.95" departLane="best">
        <route edges="-25771197#1 31302218#0 18677921#0 176050262#11 176050262#17 25771222#0 25771222#7 367885355#0 -25771196#2 367885354#0 367885354#2 367885354#3 -39351633#2 -26374484#2 -26374484#0 -25804090#1 25804090#0 1023574135#0"/>
    </vehicle>
    <vehicle id="veh45" type="veh_passenger" depart="713.81" departLane="best" departSpeed="max">
        <route edges="6229770 -367885354#2 6229793#1 6229793#3 31302197#4 -403752974#3"/>
    </vehicle>
    <vehicle id="veh46" type="veh_passenger" depart="729.67" departLane="best" departSpeed="max">
        <route edges="25804090#0 1023574135#0 26374484#1 39351633#0 -367885354#5 -367885354#2 -367885354#1 25771196#0 -367885355#2 -25771222#7 -25771222#6 93221335#0 6229931#0 6229931#11 289754954#0 -289755504#3 -289755504#0"/>
    </vehicle>
    <vehicle id="veh47" type="veh_passenger" depart="745.53" departLane="best">
        <route edges="367885355#0 -25771196#2 367885354#0 367885354#2 367885354#3 -39351633#2 25771194#0"/>
    </vehicle>
    <vehicle id="veh48" type="veh_passenger" depart="761.39" departLane="best" departSpeed="max">
        <route edges="403752974#0 31302197#5 24217566#0 -39351633#2 25771194#0"/>
    </vehicle>
    <vehicle id="veh49" type="veh_passenger" depart="777.26" departLane="best">
        <route edges="-176050262#10 -31302218#6 25771197#0 25771197#2 25771197#3 25771197#5 -25771196#2 367885354#0 367885354#2 367885354#3 -39351633#2 -26374484#2 -6229523#2"/>
    </vehicle>
    <vehicle id="veh50" type="veh_passenger" depart="793.12" departLane="best" departSpeed="max">
        <route edges="6229770 -367885354#2 -367885354#1 25771196#0 -367885355#2 -25771222#7 -25771222#6 93221335#0 25330858#0 32035133#0 432427280#0"/>
    </vehicle>
    <vehicle id="veh51" type="veh_passenger" depart="808.98" departLane="best">
        <route edges="-404426090#2 31302197#11 6229445#0 39351633#0 -367885354#5 -367885354#2 -367885354#1 25771196#0 -25771196#2"/>
    </vehicle>
    <vehicle id="veh52" type="veh_passenger" depart="824.84" departLane="best" departSpeed="max">
        <route edges="6229770 -367885354#2 -367885354#1 25771196#0 -367885355#2 -25771222#7 -25771222#6 93221335#0 25330858#0 7545433#0"/>
    </vehicle>
    <vehicle id="veh53" type="veh_passenger" depart="840.71" departLane="best" departSpeed="max">
        <route edges="-25771194#3 39351633#0 -367885354#5 -367885354#2 -367885354#1 25771196#0 -367885355#2 -25771222#7 -25771222#6 93221335#0 6229931#0 6229931#11 6229931#13 189452753"/>
    </vehicle>
    <vehicle id="veh54" type="veh_passenger" depart="856.57" departLane="best">
        <route edges="367885355#0 -367885355#2 -25771222#7 -25771222#6 93221335#0 6229931#0 6229931#11 6229931#13 6229931#14 6229931#15 6229931#16 6229931#17 24686074 -25888232#0"/>
    </vehicle>
    <vehicle id="veh55" type="veh_passenger" depart="872.43" departLane="best" departSpeed="max">
        <route edges="-95736430#1 -6229931#15 -6229931#14 -6229931#13 -6229931#12 -6229931#10 -93221335#4 25771222#0 25771222#7 367885355#0 -25771196#2 367885354#0 -367885354#1 25771196#0"/>
    </vehicle>
    <vehicle id="veh56" type="veh_passenger" depart="888.29" departLane="best" departSpeed="max">
        <route edges="-6229931#19 -6229931#18 -6229931#16 -6229931#15 -6229931#14 -6229931#13 -6229931#12 -6229931#10 -93221335#4 31302197#0 -31302197#3 -176050262#17 -176050262#16 -176050262#10 -31302218#6"/>
    </vehicle>
    <vehicle id="veh57" type="veh_passenger" depart="904.16" departLane="best" departSpeed="max">
        <route edges="25331371#0 -25771196#2 367885354#0 367885354#2 367885354#3 -39351633#2 -26374484#2 380986446#0"/>
    </vehicle>
    <vehicle id="veh58" type="veh_passenger" depart="920.02" departLane="best" departSpeed="max">
        <route edges="-289755504#4 289754954#1 289754954#2 -6229931#10 -93221335#4 31302197#0 -31302197#3 -176050262#17 -176050262#16 -51423079#12"/>
    </vehicle>
    <vehicle id="veh59" type="veh_passenger" depart="935.88" departLane="best" departSpeed="max">
        <route edges="7624234 -367885354#5 -367885354#2 -367885354#1 25771196#0 -367885355#2 -25771222#7 -25771222#6 93221335#0 6229931#0 6229931#11 289754954#0 289755504#4"/>
    </vehicle>
    <vehicle id="veh60" type="veh_passenger" depart="951.74" departLane="best" departSpeed="max">
        <route edges="-7545433#24 -7545433#13 -30825103#4 6229931#0 6229931#11 6229931#13 6229931#14 6229931#15 6229931#16 6229931#17 24686074"/>
    </vehicle>
    <vehicle id="veh61" type="veh_passenger" depart="967.61" departLane="best">
        <route edges="-31302197#3 93221335#0 25330858#0 32035133#0 432427280#0 -432427280#3 -32035133#14"/>
    </vehicle>
    <vehicle id="veh62" type="veh_passenger" depart="983.47" departLane="best">
        <route edges="-31302197#3 93221335#0 6229931#0 6229931#11 6229931#13 6229931#14"/>
    </vehicle>
    <vehicle id="veh63" type="veh_passenger" depart="999.33" departLane="best">
        <route edges="6229523#0 26374484#1 39351633#0 -367885354#5 -367885354#2 -367885354#1 25771196#0 -25771197#8 -25771197#4"/>
    </vehicle>
    <vehicle id="veh64" type="veh_passenger" depart="1015.19" departLane="best">
        <route edges="-31302197#10 -31302197#7 -31302197#4 -31302197#3 93221335#0 6229931#0 6229931#11 6229931#13 6229931#14 6229931#15 6229931#16 6229931#17 24686074 -25888232#0"/>
    </vehicle>
    <vehicle id="veh65" type="veh_passenger" depart="1031.06" departLane="best">
        <route edges="6229931#0 -6229931#10 -93221335#4 25771222#0 25771222#7 367885355#0 -25771196#2 367885354#0 -367885354#1 25771196#0 -25771197#8 -25771197#4 25771197#3"/>
    </vehicle>
    <vehicle id="veh66" type="veh_passenger" depart="1046.92" departLane="best" departSpeed="max">
        <route edges="-25771194#3 39351633#0 -367885354#5 -367885354#2 -367885354#1 25771196#0 -367885355#2 -25771222#7 -25771222#6 93221335#0 -93221335#4"/>
    </vehicle>
    <vehicle id="veh67" type="veh_passenger" depart="1062.78" departLane="best" departSpeed="max">
        <route edges="7624234 -39351633#2 -26374484#2 -26374484#0 -25804090#1"/>
    </vehicle>
    <vehicle id="veh68" type="veh_passenger" depart="1078.64" departLane="best">
        <route edges="-6229931#16 -6229931#15 -6229931#14 -6229931#13 -6229931#12 -6229931#10 -93221335#4 25771222#0 25771222#7 367885355#0 -25771196#2 367885354#0 367885354#2 -6229770"/>
    </vehicle>
    <vehicle id="veh69" type="veh_passenger" depart="1094.50" departLane="best">
        <route edges="6229595#0 51423079#10 176050262#11 176050262#17 31302197#0 31302197#4 -403752974#3"/>
    </vehicle>
    <vehicle id="veh70" type="veh_passenger" depart="1110.37" departLane="best" departSpeed="max">
        <route edges="-289755504#4 289754954#1 289754954#2 -6229931#10 -93221335#4 31302197#0 31302197#4 31302197#5 31302197#8 31302197#11 31302197#14 176050263#0"/>
    </vehicle>
    <vehicle id="veh71" type="veh_passenger" depart="1126.23" departLane="best" departSpeed="max">
        <route edges="-6229931#19 -6229931#18 -6229931#16 -6229931#15 -6229931#14 -6229931#13 -6229931#12 -6229931#10 -93221335#4 31302197#0 31302197#4 31302197#5 31302197#8 404426090#0 404426089#0 -404426090#7"/>
    </vehicle>
    <vehicle id="veh72" type="veh_passenger" depart="1142.09" departLane="best">
        <route edges="-32035133#14 -30825103#4 6229931#0 6229931#11 6229931#13 6229931#14 6229931#15 6229931#16 6229931#17 6229931#19"/>
    </vehicle>
    <vehicle id="veh73" type="veh_passenger" depart="1157.95" departLane="best" departSpeed="max">
        <route edges="-7545433#24 -7545433#13 -30825103#4 -93221335#4 31302197#0 31302197#4 31302197#5 31302197#8 31302197#11 31302197#14 6229523#0"/>
    </vehicle>
    <vehicle id="veh74" type="veh_passenger" depart="1173.82" departLane="best">
        <route edges="93221335#0 25330858#0 32035133#0 432427280#0"/>
    </vehicle>
    <vehicle id="veh75" type="veh_passenger" depart="1189.68" departLane="best">
        <route edges="7545433#0 -7545433#13 -30825103#4 6229931#0 6229931#11 6229931#13 6229931#14 6229931#15 6229931#16 6229931#17 6229931#19"/>
    </vehicle>
    <vehicle id="veh76" type="veh_passenger" depart="1205.54" departLane="best">
        <route edges="6229305#0 6229595#0 51423079#10 176050262#11 176050262#17 93221335#0 6229931#0 6229931#11 289754954#0 -289755504#3 -289755504#0"/>
    </vehicle>
    <vehicle id="veh77" type="veh_passenger" depart="1221.40" departLane="best" departSpeed="max">
        <route edges="-95736430#1 -6229931#15 -6229931#14 -6229931#13 -6229931#12 -6229931#10 -93221335#4 31302197#0 -31302197#3 -176050262#17 -176050262#16 -176050262#10 -31302218#6"/>
    </vehicle>
    <vehicle id="veh78" type="veh_passenger" depart="1237.27" departLane="best">
        <route edges="-6229931#16 -6229931#15 -6229931#14 -6229931#13 -6229931#12 -6229931#10 -93221335#4 25771222#0 25771222#7 367885355#0 -25771196#2"/>
    </vehicle>
    <vehicle id="veh79" type="veh_passenger" depart="1253.13" departLane="best">
        <route edges="-367885355#2 -25771222#7 -6229815#3 6229793#3 31302197#4 31302197#5 31302197#8 404426090#0"/>
    </vehicle>
    <vehicle id="veh80" type="veh_passenger" depart="1268.99" departLane="best" departSpeed="max">
        <route edges="-7545433#24 -7545433#13"/>
    </vehicle>
    <vehicle id="veh81" type="veh_passenger" depart="1284.85" departLane="best">
        <route edges="7545433#0 -7545433#13 -30825103#4 -93221335#4 25771222#0"/>
    </vehicle>
    <vehicle id="veh82" type="veh_passenger" depart="1300.72" departLane="best" departSpeed="max">
        <route edges="25331371#0 -25771196#2 367885354#0 367885354#2 367885354#3 -39351633#2 -26374484#2 380986446#0"/>
    </vehicle>
    <vehicle id="veh83" type="veh_passenger" depart="1316.58" departLane="best" departSpeed="max">
        <route edges="-189452753 -6229931#13 -6229931#12 -6229931#10 -93221335#4 25771222#0 25771222#7"/>
    </vehicle>
    <vehicle id="veh84" type="veh_passenger" depart="1332.44" departLane="best" departSpeed="max">
        <route edges="-25861573#2 7545433#14"/>
    </vehicle>
    <vehicle id="veh85" type="veh_passenger" depart="1348.30" departLane="best">
        <route edges="-24686074 -6229931#18 -6229931#16 -6229931#15 -6229931#14 -6229931#13 -6229931#12 -6229931#10 -93221335#4 31302197#0 31302197#4 31302197#5 31302197#8 -31302197#10"/>
    </vehicle>
    <vehicle id="veh86" type="veh_passenger" depart="1364.17" departLane="best">
        <route edges="25771222#0 -6229815#3 6229793#3 31302197#4 31302197#5 31302197#8 31302197#11"/>
    </vehicle>
    <vehicle id="veh87" type="veh_passenger" depart="1380.03" departLane="best">
        <route edges="-31302197#4 -31302197#3 93221335#0 6229931#0 6229931#11 6229931#13 6229931#14 6229931#15 6229931#16 6229931#17 24686074 -25888232#0"/>
    </vehicle>
    <vehicle id="veh88" type="veh_passenger" depart="1395.89" departLane="best" departSpeed="max">
        <route edges="6229793#0 6229793#1 6229793#3 31302197#4 -403752974#3"/>
    </vehicle>
    <vehicle id="veh89" type="veh_passenger" depart="1411.75" departLane="best">
        <route edges="25771222#0 25771222#7 367885355#0 -25771196#2 367885354#0 367885354#2 367885354#3 -39351633#2 -26374484#2 26374484#1"/>
    </vehicle>
    <vehicle id="veh90" type="veh_passenger" depart="1427.62" departLane="best" departSpeed="max">
        <route edges="-6229931#19 -6229931#18 -6229931#16 -6229931#15 -6229931#14 -6229931#13 -6229931#12 -6229931#10 -93221335#4 25771222#0 25771222#7"/>
    </vehicle>
    <vehicle id="veh91" type="veh_passenger" depart="1443.48" departLane="best">
        <route edges="201966215#0 -176050263#4 -176050263#3 -31302197#15 -31302197#13 -31302197#10 -31302197#7 -31302197#4 -31302197#3 93221335#0 6229931#0 6229931#11 6229931#13 6229931#14 6229931#15 6229931#16 6229931#17 6229931#19"/>
    </vehicle>
    <vehicle id="veh92" type="veh_passenger" depart="1459.34" departLane="best">
        <route edges="-289756327#3 289756327#0 289754954#2 -6229931#10 -93221335#4 25771222#0 25771222#7 367885355#0 -25771196#2 367885354#0 367885354#2 367885354#3"/>
    </vehicle>
    <vehicle id="veh93" type="veh_passenger" depart="1475.20" departLane="best" departSpeed="max">
        <route edges="-432427280#3 -32035133#14 -30825103#4 -93221335#4 25771222#0 25771222#7 367885355#0 -25771196#2 367885354#0 367885354#2 367885354#3 -39351633#2 39351633#0"/>
    </vehicle>
    <vehicle id="veh94" type="veh_passenger" depart="1491.06" departLane="best">
        <route edges="93221335#0 6229931#0 6229931#11 6229931#13 6229931#14 6229931#15 95736430#0"/>
    </vehicle>
    <vehicle id="veh95" type="veh_passenger" depart="1506.93" departLane="best">
        <route edges="-201966215#3 -176050263#3 -31302197#15 -31302197#13 -31302197#10 -31302197#7 -31302197#4 -31302197#3 -176050262#17 -176050262#16 -176050262#10 -31302218#6"/>
    </vehicle>
    <vehicle id="veh96" type="veh_passenger" depart="1522.79" departLane="best">
        <route edges="-367885355#2 -25771222#7 -25771222#6 93221335#0 6229931#0 6229931#11 6229931#13 6229931#14 6229931#15 6229931#16 6229931#17 6229931#19"/>
    </vehicle>
    <vehicle id="veh97" type="veh_passenger" depart="1538.65" departLane="best" departSpeed="max">
        <route edges="6229770 -367885354#2 6229793#1 6229815#0"/>
    </vehicle>
    <vehicle id="veh98" type="veh_passenger" depart="1554.51" departLane="best">
        <route edges="-6229793#6 6229793#3 -31302197#3 93221335#0 6229931#0 6229931#11 289754954#0 -289755504#3 -289755504#0"/>
    </vehicle>
    <vehicle id="veh99" type="veh_passenger" depart="1570.38" departLane="best" departSpeed="max">
        <route edges="44385336 -6229931#14 -6229931#13 -6229931#12 -6229931#10 25330858#0 32035133#0"/>
    </vehicle>
    <vehicle id="veh100" type="veh_passenger" depart="1586.24" departLane="best" departSpeed="max">
        <route edges="25804090#0 1023574135#0 26374484#1 39351633#0 -367885354#5 -367885354#2 -367885354#1 25771196#0 -367885355#2 -25771222#7 -25771222#6 93221335#0 6229931#0 6229931#11 6229931#13 6229931#14 6229931#15 95736430#0"/>
    </vehicle>
    <vehicle id="veh101" type="veh_passenger" depart="1602.10" departLane="best">
        <route edges="26374484#1 39351633#0 -367885354#5 -367885354#2 -367885354#1 25771196#0 -25771197#8 6229880#0 -176050262#16"/>
    </vehicle>
    <vehicle id="veh102" type="veh_passenger" depart="1617.96" departLane="best">
        <route edges="289754954#0 289754954#1 289754954#2 6229931#11 6229931#13 6229931#14 6229931#15 6229931#16 6229931#17 6229931#19"/>
    </vehicle>
    <vehicle id="veh103" type="veh_passenger" depart="1633.83" departLane="best">
        <route edges="-25771222#6 93221335#0 6229931#0 6229931#11 6229931#13 6229931#14 6229931#15 6229931#16 6229931#17 24686074 -25888232#0"/>
    </vehicle>
    <vehicle id="veh104" type="veh_passenger" depart="1649.69" departLane="best">
        <route edges="-39351633#2 39351633#0 -367885354#5 -367885354#2 -367885354#1 25771196#0 -367885355#2 -25771222#7 -25771222#6 93221335#0 25330858#0 7545433#0 25861573#0"/>
    </vehicle>
    <vehicle id="veh105" type="veh_passenger" depart="1665.55" departLane="best" departSpeed="max">
        <route edges="25888232#0 -24686074 -6229931#18 -6229931#16 -6229931#15 -6229931#14 -6229931#13 -6229931#12 -6229931#10 -93221335#4 31302197#0 31302197#4 -403752974#3"/>
    </vehicle>
    <vehicle id="veh106" type="veh_passenger" depart="1681.41" departLane="best">
        <route edges="51423079#10 176050262#11 176050262#17 25771222#0 25771222#7 367885355#0 -25771196#2 367885354#0 367885354#2 367885354#3 -39351633#2 -26374484#2 -26374484#0 -25804090#1"/>
    </vehicle>
    <vehicle id="veh107" type="veh_passenger" depart="1697.28" departLane="best" departSpeed="max">
        <route edges="-6229931#19 -6229931#18 -6229931#16 -6229931#15 -6229931#14 -6229931#13 -6229931#12 -6229931#10 -93221335#4 31302197#0 31302197#4 31302197#5 31302197#8 404426090#0 -404426090#2"/>
    </vehicle>
    <vehicle id="veh108" type="veh_passenger" depart="1713.14" departLane="best">
        <route edges="-176050262#10 -31302218#6 25771197#0 25771197#2 25771197#3 25771197#5 -25771196#2 367885354#0 367885354#2 367885354#3 -39351633#2 -6229445#1 -31302197#13 404426090#0 404426089#0 404426089#1"/>
    </vehicle>
    <vehicle id="veh109" type="veh_passenger" depart="1729.00" departLane="best" departSpeed="max">
        <route edges="25888232#0 -24686074 -6229931#18 -6229931#16 -6229931#15 -6229931#14 -6229931#13 -6229931#12 -6229931#10 -93221335#4 31302197#0 31302197#4 -403752974#3"/>
    </vehicle>
    <vehicle id="veh110" type="veh_passenger" depart="1744.86" departLane="best">
        <route edges="32035133#0 432427280#0 -432427280#3 -32035133#14 -30825103#4 -93221335#4 25771222#0 25771222#7 367885355#0 -25771196#2 367885354#0 -367885354#1 25771196#0"/>
    </vehicle>
    <vehicle id="veh111" type="veh_passenger" depart="1760.73" departLane="best" departSpeed="max">
        <route edges="-6229931#19 -6229931#18 -6229931#16 -6229931#15 -6229931#14 -6229931#13 -6229931#12 -6229931#10 -93221335#4 31302197#0 -31302197#3 -176050262#17"/>
    </vehicle>
    <vehicle id="veh112" type="veh_passenger" depart="1776.59" departLane="best">
        <route edges="-201966215#3 -176050263#3 6229523#0 26374484#1 39351633#0 -367885354#5 -367885354#2 -367885354#1 25771196#0 -25771197#8 6229880#0"/>
    </vehicle>
    <vehicle id="veh113" type="veh_passenger" depart="1792.45" departLane="best" departSpeed="max">
        <route edges="6229793#0 367885354#2 367885354#3 -39351633#2 25771194#0"/>
    </vehicle>
    <vehicle id="veh114" type="veh_passenger" depart="1808.31" departLane="best" departSpeed="max">
        <route edges="44385336 -6229931#14 -6229931#13 -6229931#12 -6229931#10 -93221335#4 25771222#0 25771222#7"/>
    </vehicle>
    <vehicle id="veh115" type="veh_passenger" depart="1824.17" departLane="best" departSpeed="max">
        <route edges="-25861573#2 -7545433#13 -30825103#4 6229931#0 6229931#11 6229931#13 6229931#14 6229931#15 6229931#16 6229931#17 24686074 -25888232#0"/>
    </vehicle>
    <vehicle id="veh116" type="veh_passenger" depart="1840.04" departLane="best" departSpeed="max">