<?xml version="1.0" encoding="UTF-8"?>

<!-- generated on 2022-11-05 16:27:33 by Eclipse SUMO duarouter Version 1.13.0
<configuration xmlns:xsi="http://www.w3.org/2001/XMLSchema-instance" xsi:noNamespaceSchemaLocation="http://sumo.dlr.de/xsd/duarouterConfiguration.xsd">

    <input>
        <net-file value="/Users/nutorbit/workspace/sumo/test/osm.net.xml"/>
        <route-files value="/Users/nutorbit/workspace/sumo/test/osm.passenger.trips.xml"/>
    </input>

    <output>
        <output-file value="/Users/nutorbit/workspace/sumo/test/osm.passenger.trips.xml.tmp"/>
        <write-trips value="true"/>
    </output>

    <time>
        <begin value="0"/>
        <end value="3600"/>
    </time>

    <report>
        <no-warnings value="true"/>
        <ignore-errors value="true"/>
        <no-step-log value="true"/>
    </report>

</configuration>
-->

<routes xmlns:xsi="http://www.w3.org/2001/XMLSchema-instance" xsi:noNamespaceSchemaLocation="http://sumo.dlr.de/xsd/routes_file.xsd">
    <vType id="veh_passenger" vClass="passenger"/>
    <trip id="veh0" type="veh_passenger" depart="0.00" departLane="best" departSpeed="max" from="551237852#0" to="-302710358#0"/>
    <trip id="veh2" type="veh_passenger" depart="1.67" departLane="best" from="616787775#1" to="616748224"/>
    <trip id="veh3" type="veh_passenger" depart="2.50" departLane="best" departSpeed="max" from="626483693#0" to="-452900422#0"/>
    <trip id="veh4" type="veh_passenger" depart="3.34" departLane="best" departSpeed="max" from="-963880961" to="-302710871#6"/>
    <trip id="veh6" type="veh_passenger" depart="5.00" departLane="best" departSpeed="max" from="-302697425" to="-616748099#0"/>
    <trip id="veh7" type="veh_passenger" depart="5.84" departLane="best" departSpeed="max" from="551237859#0" to="452900398"/>
    <trip id="veh8" type="veh_passenger" depart="6.67" departLane="best" departSpeed="max" from="-616790748" to="551237842#0"/>
    <trip id="veh10" type="veh_passenger" depart="8.34" departLane="best" departSpeed="max" from="616790806" to="616781992"/>
    <trip id="veh11" type="veh_passenger" depart="9.17" departLane="best" departSpeed="max" from="-695653485#7" to="-551237864#0"/>
    <trip id="veh15" type="veh_passenger" depart="12.51" departLane="best" departSpeed="max" from="450601296#0" to="964173272#1"/>
    <trip id="veh17" type="veh_passenger" depart="14.18" departLane="best" from="616790874#0" to="551237860#0"/>
    <trip id="veh18" type="veh_passenger" depart="15.01" departLane="best" departSpeed="max" from="616972410" to="52058628#3"/>
    <trip id="veh19" type="veh_passenger" depart="15.84" departLane="best" departSpeed="max" from="616748100" to="-450601287#0"/>
    <trip id="veh20" type="veh_passenger" depart="16.68" departLane="best" from="-616790754#2" to="-616790788#0"/>
    <trip id="veh22" type="veh_passenger" depart="18.34" departLane="best" departSpeed="max" from="-551237846#7" to="-616790768"/>
    <trip id="veh23" type="veh_passenger" depart="19.18" departLane="best" from="551237850#0" to="-616972415"/>
    <trip id="veh24" type="veh_passenger" depart="20.01" departLane="best" departSpeed="max" from="-934644759" to="-616748243"/>
    <trip id="veh26" type="veh_passenger" depart="21.68" departLane="best" departSpeed="max" from="-616748246" to="616790740#0"/>
    <trip id="veh29" type="veh_passenger" depart="24.18" departLane="best" departSpeed="max" from="452900388" to="616748296"/>
    <trip id="veh30" type="veh_passenger" depart="25.01" departLane="best" from="616790989#2" to="616790874#0"/>
    <trip id="veh33" type="veh_passenger" depart="27.52" departLane="best" departSpeed="max" from="-616790729" to="963882662"/>
    <trip id="veh34" type="veh_passenger" depart="28.35" departLane="best" from="616972485" to="-616790834"/>
    <trip id="veh38" type="veh_passenger" depart="31.69" departLane="best" departSpeed="max" from="452900400" to="-616790751"/>
    <trip id="veh41" type="veh_passenger" depart="34.19" departLane="best" departSpeed="max" from="964185510" to="302710873#15"/>
    <trip id="veh42" type="veh_passenger" depart="35.02" departLane="best" from="-481206840#0" to="-450601287#0"/>
    <trip id="veh43" type="veh_passenger" depart="35.85" departLane="best" departSpeed="max" from="-551237852#3" to="551237864#2"/>
    <trip id="veh44" type="veh_passenger" depart="36.69" departLane="best" departSpeed="max" from="616790788#0" to="-695708754#1"/>
    <trip id="veh46" type="veh_passenger" depart="38.36" departLane="best" departSpeed="max" from="964185510" to="450601294#2"/>
    <trip id="veh47" type="veh_passenger" depart="39.19" departLane="best" departSpeed="max" from="963958980" to="695671244"/>
    <trip id="veh48" type="veh_passenger" depart="40.02" departLane="best" from="-169244090#1" to="616790729"/>
    <trip id="veh49" type="veh_passenger" depart="40.86" departLane="best" departSpeed="max" from="551237880" to="452900367#2"/>
    <trip id="veh52" type="veh_passenger" depart="43.36" departLane="best" departSpeed="max" from="-964172111" to="963918461"/>
    <trip id="veh54" type="veh_passenger" depart="45.03" departLane="best" from="169244325#7" to="-551237880"/>
    <trip id="veh58" type="veh_passenger" depart="48.36" departLane="best" from="616790763#3" to="450601294#2"/>
    <trip id="veh60" type="veh_passenger" depart="50.03" departLane="best" departSpeed="max" from="-169244535#8" to="963857697"/>
    <trip id="veh61" type="veh_passenger" depart="50.86" departLane="best" departSpeed="max" from="617245756" to="616972464#1"/>
    <trip id="veh62" type="veh_passenger" depart="51.70" departLane="best" from="-616972441#2" to="-450601296#2"/>
    <trip id="veh63" type="veh_passenger" depart="52.53" departLane="best" departSpeed="max" from="616979748" to="963914148"/>
    <trip id="veh64" type="veh_passenger" depart="53.37" departLane="best" from="-452900474#10" to="169244325#2"/>
    <trip id="veh66" type="veh_passenger" depart="55.03" departLane="best" departSpeed="max" from="616790753#0" to="-551237846#1"/>
    <trip id="veh67" type="veh_passenger" depart="55.87" departLane="best" departSpeed="max" from="-964195674" to="452900417#2"/>
    <trip id="veh68" type="veh_passenger" depart="56.70" departLane="best" departSpeed="max" from="-616790904#2" to="695704636#0"/>
    <trip id="veh70" type="veh_passenger" depart="58.37" departLane="best" from="452900366#2" to="616790740#3"/>
    <trip id="veh72" type="veh_passenger" depart="60.04" departLane="best" departSpeed="max" from="964183715" to="551237887#1"/>
    <trip id="veh75" type="veh_passenger" depart="62.54" departLane="best" departSpeed="max" from="-616790758" to="-616781941"/>
    <trip id="veh76" type="veh_passenger" depart="63.37" departLane="best" from="-452900413#1" to="551237868#1"/>
    <trip id="veh78" type="veh_passenger" depart="65.04" departLane="best" from="616972403#1" to="-452900383#0"/>
    <trip id="veh80" type="veh_passenger" depart="66.71" departLane="best" from="-616790737#1" to="-551237848#0"/>
    <trip id="veh81" type="veh_passenger" depart="67.54" departLane="best" departSpeed="max" from="936316091#0" to="52058581#0"/>
    <trip id="veh82" type="veh_passenger" depart="68.37" departLane="best" departSpeed="max" from="-964193802" to="616790927#2"/>
    <trip id="veh83" type="veh_passenger" depart="69.21" departLane="best" departSpeed="max" from="616790807" to="-551237887#3"/>
    <trip id="veh84" type="veh_passenger" depart="70.04" departLane="best" from="-551237843#2" to="-934655664#1"/>
    <trip id="veh86" type="veh_passenger" depart="71.71" departLane="best" departSpeed="max" from="616787536#0" to="616748212"/>
    <trip id="veh90" type="veh_passenger" depart="75.04" departLane="best" departSpeed="max" from="-616782023" to="-963933950#0"/>
    <trip id="veh94" type="veh_passenger" depart="78.38" departLane="best" from="452900379#7" to="-450601291#0"/>
    <trip id="veh95" type="veh_passenger" depart="79.21" departLane="best" departSpeed="max" from="964203433" to="616979758"/>
    <trip id="veh97" type="veh_passenger" depart="80.88" departLane="best" departSpeed="max" from="616972334" to="-551237871#0"/>
    <trip id="veh101" type="veh_passenger" depart="84.22" departLane="best" departSpeed="max" from="-616790904#2" to="616790927#1"/>
    <trip id="veh102" type="veh_passenger" depart="85.05" departLane="best" departSpeed="max" from="-964173272#1" to="-695708756"/>
    <trip id="veh106" type="veh_passenger" depart="88.39" departLane="best" departSpeed="max" from="963933950#0" to="551237840#2"/>
    <trip id="veh107" type="veh_passenger" depart="89.22" departLane="best" from="452900371#0" to="616790774"/>
    <trip id="veh108" type="veh_passenger" depart="90.05" departLane="best" from="-450601296#1" to="551237840#7"/>
    <trip id="veh109" type="veh_passenger" depart="90.89" departLane="best" departSpeed="max" from="169244535#0" to="695653485#7"/>
    <trip id="veh110" type="veh_passenger" depart="91.72" departLane="best" departSpeed="max" from="-616748180" to="963932549"/>
    <trip id="veh112" type="veh_passenger" depart="93.39" departLane="best" from="452900474#11" to="616748222#1"/>
    <trip id="veh113" type="veh_passenger" depart="94.22" departLane="best" from="-616790763#4" to="-52058581#1"/>
    <trip id="veh114" type="veh_passenger" depart="95.06" departLane="best" departSpeed="max" from="626483691" to="-616790728"/>
    <trip id="veh115" type="veh_passenger" depart="95.89" departLane="best" from="452900474#1" to="551237860#2"/>
    <trip id="veh116" type="veh_passenger" depart="96.72" departLane="best" departSpeed="max" from="-963874433" to="551237840#7"/>
    <trip id="veh119" type="veh_passenger" depart="99.23" departLane="best" departSpeed="max" from="-616790784" to="-626716323"/>
    <trip id="veh120" type="veh_passenger" depart="100.06" departLane="best" departSpeed="max" from="551237875#0" to="-616790806"/>
    <trip id="veh121" type="veh_passenger" depart="100.89" departLane="best" departSpeed="max" from="-616972481" to="616790778#1"/>
    <trip id="veh124" type="veh_passenger" depart="103.39" departLane="best" departSpeed="max" from="-452900417#4" to="-616748292"/>
    <trip id="veh125" type="veh_passenger" depart="104.23" departLane="best" departSpeed="max" from="-616790904#2" to="963870833"/>
    <trip id="veh126" type="veh_passenger" depart="105.06" departLane="best" from="617245788" to="695708755"/>
    <trip id="veh127" type="veh_passenger" depart="105.90" departLane="best" departSpeed="max" from="-934644759" to="-551237865#0"/>
    <trip id="veh131" type="veh_passenger" depart="109.23" departLane="best" departSpeed="max" from="616790828#0" to="-616790806"/>
    <trip id="veh134" type="veh_passenger" depart="111.73" departLane="best" from="-551237850#1" to="452900424"/>
    <trip id="veh137" type="veh_passenger" depart="114.23" departLane="best" from="551237849#1" to="-616790753#0"/>
    <trip id="veh138" type="veh_passenger" depart="115.07" departLane="best" departSpeed="max" from="148476865#0" to="962879933"/>
    <trip id="veh142" type="veh_passenger" depart="118.40" departLane="best" departSpeed="max" from="551237851#0" to="-616790750#4"/>
    <trip id="veh143" type="veh_passenger" depart="119.24" departLane="best" from="616790721#1" to="452900417#4"/>
    <trip id="veh145" type="veh_passenger" depart="120.91" departLane="best" from="-452900422#0" to="934644759"/>
    <trip id="veh146" type="veh_passenger" depart="121.74" departLane="best" from="695653485#2" to="452900408"/>
    <trip id="veh147" type="veh_passenger" depart="122.57" departLane="best" from="616790930#0" to="551237840#7"/>
    <trip id="veh153" type="veh_passenger" depart="127.58" departLane="best" departSpeed="max" from="-963851478" to="551237860#6"/>
    <trip id="veh154" type="veh_passenger" depart="128.41" departLane="best" from="-616748108#0" to="963857697"/>
    <trip id="veh155" type="veh_passenger" depart="129.24" departLane="best" departSpeed="max" from="616972415" to="964178042"/>
    <trip id="veh156" type="veh_passenger" depart="130.08" departLane="best" from="616790815" to="934644243"/>
    <trip id="veh157" type="veh_passenger" depart="130.91" departLane="best" departSpeed="max" from="-302697417#2" to="616790750#6"/>
    <trip id="veh158" type="veh_passenger" depart="131.74" departLane="best" departSpeed="max" from="-626714037" to="963867284"/>
    <trip id="veh159" type="veh_passenger" depart="132.58" departLane="best" from="616790797" to="695671246#1"/>
    <trip id="veh160" type="veh_passenger" depart="133.41" departLane="best" from="616790815" to="-616790754#0"/>
    <trip id="veh161" type="veh_passenger" depart="134.25" departLane="best" departSpeed="max" from="616790773" to="-452900468#0"/>
    <trip id="veh162" type="veh_passenger" depart="135.08" departLane="best" from="616972441#2" to="695670296#0"/>
    <trip id="veh164" type="veh_passenger" depart="136.75" departLane="best" departSpeed="max" from="-964185509" to="-616790819"/>
    <trip id="veh165" type="veh_passenger" depart="137.58" departLane="best" departSpeed="max" from="616790789" to="-616787536#0"/>
    <trip id="veh167" type="veh_passenger" depart="139.25" departLane="best" from="-625666456#1" to="695671246#1"/>
    <trip id="veh170" type="veh_passenger" depart="141.75" departLane="best" departSpeed="max" from="964169985" to="452900366#6"/>
    <trip id="veh171" type="veh_passenger" depart="142.58" departLane="best" from="936316091#1" to="-452900474#7"/>
    <trip id="veh175" type="veh_passenger" depart="145.92" departLane="best" departSpeed="max" from="616787536#0" to="-616790834"/>
    <trip id="veh177" type="veh_passenger" depart="147.59" departLane="best" departSpeed="max" from="-962878943" to="52058628#2"/>
    <trip id="veh180" type="veh_passenger" depart="150.09" departLane="best" from="452900366#0" to="616790725"/>
    <trip id="veh181" type="veh_passenger" depart="150.92" departLane="best" from="616790721#3" to="616748190#1"/>
    <trip id="veh182" type="veh_passenger" depart="151.76" departLane="best" from="-695708753#2" to="-452900383#0"/>
    <trip id="veh183" type="veh_passenger" depart="152.59" departLane="best" from="551237868#1" to="-616790927#1"/>
    <trip id="veh185" type="veh_passenger" depart="154.26" departLane="best" from="616781882#0" to="-616790806"/>
    <trip id="veh189" type="veh_passenger" depart="157.59" departLane="best" from="936316091#4" to="616748224"/>
    <trip id="veh191" type="veh_passenger" depart="159.26" departLane="best" departSpeed="max" from="-616972418" to="452900413#0"/>
    <trip id="veh193" type="veh_passenger" depart="160.93" departLane="best" departSpeed="max" from="-963914148" to="551237840#3"/>
    <trip id="veh195" type="veh_passenger" depart="162.60" departLane="best" departSpeed="max" from="-963932549" to="-616748292"/>
    <trip id="veh199" type="veh_passenger" depart="165.93" departLane="best" from="551237848#1" to="-616790962#0"/>
    <trip id="veh200" type="veh_passenger" depart="166.77" departLane="best" departSpeed="max" from="616790828#0" to="616790778#1"/>
    <trip id="veh202" type="veh_passenger" depart="168.43" departLane="best" departSpeed="max" from="-616787535" to="-302697424"/>
    <trip id="veh203" type="veh_passenger" depart="169.27" departLane="best" from="-616790811#1" to="149703180"/>
    <trip id="veh204" type="veh_passenger" depart="170.10" departLane="best" from="616972340#0" to="-452900386"/>
    <trip id="veh205" type="veh_passenger" depart="170.93" departLane="best" departSpeed="max" from="-963867284" to="551237866#2"/>
    <trip id="veh206" type="veh_passenger" depart="171.77" departLane="best" from="169244089#1" to="-616790726#0"/>
    <trip id="veh208" type="veh_passenger" depart="173.44" departLane="best" from="616790732" to="616790823"/>
    <trip id="veh209" type="veh_passenger" depart="174.27" departLane="best" from="-551237850#0" to="-695708760#1"/>
    <trip id="veh210" type="veh_passenger" depart="175.10" departLane="best" departSpeed="max" from="-616748284#8" to="963920101"/>
    <trip id="veh211" type="veh_passenger" depart="175.94" departLane="best" from="302710873#7" to="-450601290#2"/>
    <trip id="veh213" type="veh_passenger" depart="177.61" departLane="best" departSpeed="max" from="-964178042" to="616972330"/>
    <trip id="veh215" type="veh_passenger" depart="179.27" departLane="best" from="452900474#3" to="963917817"/>
    <trip id="veh216" type="veh_passenger" depart="180.11" departLane="best" departSpeed="max" from="626483693#0" to="551237854#1"/>
    <trip id="veh218" type="veh_passenger" depart="181.77" departLane="best" departSpeed="max" from="616790879#0" to="452900413#0"/>
    <trip id="veh219" type="veh_passenger" depart="182.61" departLane="best" departSpeed="max" from="695468900" to="616790760#3"/>
    <trip id="veh220" type="veh_passenger" depart="183.44" departLane="best" departSpeed="max" from="-964195674" to="-616790746"/>
    <trip id="veh221" type="veh_passenger" depart="184.28" departLane="best" from="-616790818#0" to="551237875#2"/>
    <trip id="veh222" type="veh_passenger" depart="185.11" departLane="best" departSpeed="max" from="616790753#0" to="450601287#4"/>
    <trip id="veh223" type="veh_passenger" depart="185.94" departLane="best" from="551237845#4" to="-616790762"/>
    <trip id="veh224" type="veh_passenger" depart="186.78" departLane="best" from="-452900426" to="-616790776#0"/>
    <trip id="veh226" type="veh_passenger" depart="188.45" departLane="best" from="452900366#5" to="-551237851#2"/>
    <trip id="veh228" type="veh_passenger" depart="190.11" departLane="best" departSpeed="max" from="616748115" to="-452900373#4"/>
    <trip id="veh229" type="veh_passenger" depart="190.95" departLane="best" departSpeed="max" from="-963853984" to="452900379#2"/>
    <trip id="veh230" type="veh_passenger" depart="191.78" departLane="best" departSpeed="max" from="-963870833" to="-616748134"/>
    <trip id="veh231" type="veh_passenger" depart="192.61" departLane="best" departSpeed="max" from="-963874433" to="962879933"/>
    <trip id="veh232" type="veh_passenger" depart="193.45" departLane="best" from="452900452#1" to="616781902"/>
    <trip id="veh233" type="veh_passenger" depart="194.28" departLane="best" from="616972394" to="616790814"/>
    <trip id="veh236" type="veh_passenger" depart="196.78" departLane="best" from="616972366#0" to="963918461"/>
    <trip id="veh239" type="veh_passenger" depart="199.29" departLane="best" departSpeed="max" from="-616790748" to="-616781941"/>
    <trip id="veh240" type="veh_passenger" depart="200.12" departLane="best" departSpeed="max" from="-963918461" to="-302710871#4"/>
    <trip id="veh242" type="veh_passenger" depart="201.79" departLane="best" departSpeed="max" from="-963848581" to="-551237871#0"/>
    <trip id="veh244" type="veh_passenger" depart="203.45" departLane="best" from="551237844#0" to="-302710871#0"/>
    <trip id="veh249" type="veh_passenger" depart="207.62" departLane="best" from="-616790732" to="-616790879#0"/>
    <trip id="veh251" type="veh_passenger" depart="209.29" departLane="best" departSpeed="max" from="616790735#0" to="616972464#1"/>
    <trip id="veh253" type="veh_passenger" depart="210.96" departLane="best" from="-169244535#7" to="452900373#3"/>
    <trip id="veh255" type="veh_passenger" depart="212.63" departLane="best" departSpeed="max" from="551237859#0" to="616790887#1"/>
    <trip id="veh257" type="veh_passenger" depart="214.29" departLane="best" from="963861652" to="-616748099#0"/>
    <trip id="veh258" type="veh_passenger" depart="215.13" departLane="best" departSpeed="max" from="-169244535#8" to="-551237860#3"/>
    <trip id="veh263" type="veh_passenger" depart="219.30" departLane="best" departSpeed="max" from="616790728" to="-452900474#5"/>
    <trip id="veh264" type="veh_passenger" depart="220.13" departLane="best" from="616790830#1" to="963933950#1"/>
    <trip id="veh265" type="veh_passenger" depart="220.96" departLane="best" from="-551237851#2" to="-302710358#2"/>
    <trip id="veh266" type="veh_passenger" depart="221.80" departLane="best" from="-616972464#0" to="616748246"/>
    <trip id="veh268" type="veh_passenger" depart="223.47" departLane="best" from="616748284#7" to="-452900388"/>
    <trip id="veh269" type="veh_passenger" depart="224.30" departLane="best" from="551237887#2" to="551237864#2"/>
    <trip id="veh270" type="veh_passenger" depart="225.13" departLane="best" departSpeed="max" from="-551237846#7" to="616790827"/>
    <trip id="veh273" type="veh_passenger" depart="227.64" departLane="best" departSpeed="max" from="616790769" to="-616972328"/>
    <trip id="veh274" type="veh_passenger" depart="228.47" departLane="best" departSpeed="max" from="-963913196" to="-616972427"/>
    <trip id="veh276" type="veh_passenger" depart="230.14" departLane="best" departSpeed="max" from="616972334" to="616972418"/>
    <trip id="veh277" type="veh_passenger" depart="230.97" departLane="best" from="-551237849#1" to="963932549"/>
    <trip id="veh278" type="veh_passenger" depart="231.80" departLane="best" from="551237850#0" to="616972463#0"/>
    <trip id="veh285" type="veh_passenger" depart="237.64" departLane="best" departSpeed="max" from="616790879#0" to="-452900417#3"/>
    <trip id="veh286" type="veh_passenger" depart="238.48" departLane="best" departSpeed="max" from="617245823#0" to="-616790726#0"/>
    <trip id="veh289" type="veh_passenger" depart="240.98" departLane="best" from="616972354#2" to="-551237882#0"/>
    <trip id="veh290" type="veh_passenger" depart="241.81" departLane="best" from="-616790733" to="616790986"/>
    <trip id="veh291" type="veh_passenger" depart="242.64" departLane="best" departSpeed="max" from="-695653485#7" to="934644243"/>
    <trip id="veh293" type="veh_passenger" depart="244.31" departLane="best" from="-169244089#6" to="963914148"/>
    <trip id="veh294" type="veh_passenger" depart="245.15" departLane="best" from="-452900474#1" to="616790729"/>
    <trip id="veh295" type="veh_passenger" depart="245.98" departLane="best" departSpeed="max" from="148476865#0" to="616790797"/>
    <trip id="veh296" type="veh_passenger" depart="246.81" departLane="best" from="551237887#2" to="551237884#1"/>
    <trip id="veh299" type="veh_passenger" depart="249.31" departLane="best" from="551237888#1" to="-616790819"/>
    <trip id="veh301" type="veh_passenger" depart="250.98" departLane="best" from="450601291#2" to="-695708760#1"/>
    <trip id="veh302" type="veh_passenger" depart="251.82" departLane="best" departSpeed="max" from="616790726#0" to="-616790930#0"/>
    <trip id="veh303" type="veh_passenger" depart="252.65" departLane="best" from="616748099#1" to="-616790760#0"/>
    <trip id="veh304" type="veh_passenger" depart="253.48" departLane="best" departSpeed="max" from="-616790823" to="-52058581#4"/>
    <trip id="veh306" type="veh_passenger" depart="255.15" departLane="best" departSpeed="max" from="450601296#0" to="616790804"/>
    <trip id="veh309" type="veh_passenger" depart="257.65" departLane="best" departSpeed="max" from="964168106" to="450601290#1"/>
    <trip id="veh310" type="veh_passenger" depart="258.49" departLane="best" from="-616790979" to="-452900439#1"/>
    <trip id="veh314" type="veh_passenger" depart="261.82" departLane="best" departSpeed="max" from="964166850" to="452900424"/>
    <trip id="veh315" type="veh_passenger" depart="262.66" departLane="best" departSpeed="max" from="551238594" to="-551237843#0"/>
    <trip id="veh316" type="veh_passenger" depart="263.49" departLane="best" departSpeed="max" from="616972427" to="169244535#8"/>
    <trip id="veh317" type="veh_passenger" depart="264.32" departLane="best" from="616972463#0" to="52058581#9"/>
    <trip id="veh318" type="veh_passenger" depart="265.16" departLane="best" departSpeed="max" from="-964188828" to="-963910275"/>
    <trip id="veh320" type="veh_passenger" depart="266.83" departLane="best" from="936316091#5" to="169243898#0"/>
    <trip id="veh322" type="veh_passenger" depart="268.49" departLane="best" departSpeed="max" from="-452900417#4" to="551237866#1"/>
    <trip id="veh325" type="veh_passenger" depart="270.99" departLane="best" departSpeed="max" from="964183715" to="-481206840#1"/>
    <trip id="veh327" type="veh_passenger" depart="272.66" departLane="best" from="616790785#0" to="-616787513#0"/>
    <trip id="veh329" type="veh_passenger" depart="274.33" departLane="best" departSpeed="max" from="-963932549" to="695670296#4"/>
    <trip id="veh330" type="veh_passenger" depart="275.16" departLane="best" departSpeed="max" from="964181258" to="-616790819"/>
    <trip id="veh331" type="veh_passenger" depart="276.00" departLane="best" departSpeed="max" from="616790721#0" to="963914148"/>
    <trip id="veh332" type="veh_passenger" depart="276.83" departLane="best" from="-616790722#0" to="-616748284#3"/>
    <trip id="veh333" type="veh_passenger" depart="277.67" departLane="best" from="-616748284#6" to="-452900387"/>
    <trip id="veh334" type="veh_passenger" depart="278.50" departLane="best" from="-148476865#1" to="-963954849"/>
    <trip id="veh335" type="veh_passenger" depart="279.33" departLane="best" departSpeed="max" from="452900471#0" to="-616790789"/>
    <trip id="veh338" type="veh_passenger" depart="281.83" departLane="best" from="551237885#0" to="963851478"/>
    <trip id="veh339" type="veh_passenger" depart="282.67" departLane="best" departSpeed="max" from="616790773" to="551237862#1"/>
    <trip id="veh341" type="veh_passenger" depart="284.34" departLane="best" departSpeed="max" from="-963882662" to="452900383#1"/>
    <trip id="veh342" type="veh_passenger" depart="285.17" departLane="best" departSpeed="max" from="551237856#0" to="962883654"/>
    <trip id="veh345" type="veh_passenger" depart="287.67" departLane="best" departSpeed="max" from="616790730" to="481206840#2"/>
    <trip id="veh346" type="veh_passenger" depart="288.50" departLane="best" from="-616790989#1" to="-551237842#0"/>
    <trip id="veh347" type="veh_passenger" depart="289.34" departLane="best" from="551237885#4" to="616781992"/>
    <trip id="veh348" type="veh_passenger" depart="290.17" departLane="best" from="963567856" to="302697425"/>
    <trip id="veh349" type="veh_passenger" depart="291.01" departLane="best" from="169243898#2" to="-452900400"/>
    <trip id="veh350" type="veh_passenger" depart="291.84" departLane="best" from="-302710873#9" to="-934655664#4"/>
    <trip id="veh351" type="veh_passenger" depart="292.67" departLane="best" departSpeed="max" from="-617245746" to="-616790735#0"/>
    <trip id="veh352" type="veh_passenger" depart="293.51" departLane="best" from="-481206840#1" to="963933949#1"/>
    <trip id="veh355" type="veh_passenger" depart="296.01" departLane="best" from="551237875#1" to="-616790756"/>
    <trip id="veh359" type="veh_passenger" depart="299.34" departLane="best" departSpeed="max" from="452900463#0" to="551237873"/>
    <trip id="veh360" type="veh_passenger" depart="300.18" departLane="best" from="164458270#2" to="-452900432#0"/>
    <trip id="veh361" type="veh_passenger" depart="301.01" departLane="best" departSpeed="max" from="-695671246#1" to="-616790939#3"/>
    <trip id="veh362" type="veh_passenger" depart="301.85" departLane="best" from="551237874#1" to="695670294#2"/>
    <trip id="veh364" type="veh_passenger" depart="303.51" departLane="best" from="-616790989#0" to="963913196"/>
    <trip id="veh366" type="veh_passenger" depart="305.18" departLane="best" departSpeed="max" from="-964173272#1" to="-616790834"/>
    <trip id="veh367" type="veh_passenger" depart="306.02" departLane="best" departSpeed="max" from="-617245746" to="964172111"/>
    <trip id="veh370" type="veh_passenger" depart="308.52" departLane="best" from="452900371#1" to="-695704634#2"/>
    <trip id="veh372" type="veh_passenger" depart="310.18" departLane="best" from="616790738" to="551237862#1"/>
    <trip id="veh373" type="veh_passenger" depart="311.02" departLane="best" departSpeed="max" from="616790746" to="-616748115"/>
    <trip id="veh375" type="veh_passenger" depart="312.69" departLane="best" departSpeed="max" from="-963918629" to="616781992"/>
    <trip id="veh378" type="veh_passenger" depart="315.19" departLane="best" departSpeed="max" from="-616748180" to="452900417#4"/>
    <trip id="veh380" type="veh_passenger" depart="316.85" departLane="best" departSpeed="max" from="964181348" to="963597865"/>
    <trip id="veh381" type="veh_passenger" depart="317.69" departLane="best" departSpeed="max" from="-964186762" to="-452900480#2"/>
    <trip id="veh382" type="veh_passenger" depart="318.52" departLane="best" from="616790887#0" to="302697417#2"/>
    <trip id="veh383" type="veh_passenger" depart="319.36" departLane="best" departSpeed="max" from="616748292" to="302710873#15"/>
    <trip id="veh385" type="veh_passenger" depart="321.02" departLane="best" departSpeed="max" from="964169985" to="-616790726#0"/>
    <trip id="veh387" type="veh_passenger" depart="322.69" departLane="best" from="695708751#2" to="302710873#15"/>
    <trip id="veh388" type="veh_passenger" depart="323.53" departLane="best" departSpeed="max" from="617245756" to="695671246#1"/>
    <trip id="veh390" type="veh_passenger" depart="325.19" departLane="best" from="294321523#4" to="616972416"/>
    <trip id="veh391" type="veh_passenger" depart="326.03" departLane="best" from="-616790979" to="-616790803"/>
    <trip id="veh394" type="veh_passenger" depart="328.53" departLane="best" from="452900366#0" to="-616972323"/>
    <trip id="veh401" type="veh_passenger" depart="334.37" departLane="best" from="616790818#1" to="-625666454"/>
    <trip id="veh403" type="veh_passenger" depart="336.03" departLane="best" departSpeed="max" from="964169985" to="294321523#2"/>
    <trip id="veh405" type="veh_passenger" depart="337.70" departLane="best" departSpeed="max" from="452900468#0" to="695704634#2"/>
    <trip id="veh406" type="veh_passenger" depart="338.53" departLane="best" departSpeed="max" from="616972480#0" to="-963910275"/>