<?xml version="1.0" encoding="UTF-8"?>

<!-- generated on 2022-11-05 16:27:32 by Eclipse SUMO polyconvert Version 1.13.0
<configuration xmlns:xsi="http://www.w3.org/2001/XMLSchema-instance" xsi:noNamespaceSchemaLocation="http://sumo.dlr.de/xsd/polyconvertConfiguration.xsd">

    <input>
        <net-file value="osm.net.xml"/>
        <osm-files value="osm_bbox.osm.xml.gz"/>
        <osm.keep-full-type value="true"/>
        <type-file value="/opt/homebrew/opt/sumo/share/sumo/data/typemap/osmPolyconvert.typ.xml"/>
    </input>

    <output>
        <output-file value="osm.poly.xml"/>
    </output>

    <processing>
        <poi-layer-offset value="5"/>
    </processing>

    <report>
        <verbose value="true"/>
    </report>

</configuration>
-->

<additional xmlns:xsi="http://www.w3.org/2001/XMLSchema-instance" xsi:noNamespaceSchemaLocation="http://sumo.dlr.de/xsd/additional_file.xsd">
    <location netOffset="-731397.50,-1465492.65" convBoundary="-0.00,-28533.06,9138.15,39989.31" origBoundary="101.136075,12.989151,101.221676,13.608645" projParameter="+proj=utm +zone=47 +ellps=WGS84 +datum=WGS84 +units=m +no_defs"/>

    <poly id="411739874" type="building.yes" color="255,230,230" fill="1" layer="-1.00" shape="4041.838279,4639.286651 4056.589642,4635.663657 4051.563539,4615.400623 4036.812264,4619.012556 4041.838279,4639.286651"/>
    <poly id="411739874#1" type="shop.supermarket" color="237,199,255" fill="1" layer="-1.00" shape="4041.838279,4639.286651 4056.589642,4635.663657 4051.563539,4615.400623 4036.812264,4619.012556 4041.838279,4639.286651"/>
    <poly id="452900344" type="natural.water" color="181,209,209" fill="1" layer="-4.00" shape="4213.450039,3901.040151 4256.193373,3754.134973 4316.362980,3772.920412 4273.681798,3912.665812 4213.450039,3901.040151"/>
    <poly id="479982780" type="building.yes" color="255,230,230" fill="1" layer="-1.00" shape="7903.210271,3794.226591 8000.312255,3793.216793 7999.278405,3695.838904 7902.176073,3696.848761 7903.210271,3794.226591"/>
    <poly id="479982784" type="building.yes" color="255,230,230" fill="1" layer="-1.00" shape="8049.421042,3767.090991 8166.060931,3765.613101 8165.046634,3686.872368 8113.420982,3687.521236 8110.856121,3488.998099 8014.347266,3490.223217 8017.529521,3736.572829 8049.023040,3736.176922 8049.421042,3767.090991"/>
    <poly id="504094656" type="natural.water" color="181,209,209" fill="1" layer="-4.00" shape="1301.779997,5311.332115 1366.499482,5355.205514 1457.175050,5365.483272 1533.712926,5354.867043 1566.099476,5338.535557 1530.456686,5247.436456 1629.498036,5188.951964 1601.524659,5177.444454 1550.924669,5182.928222 1499.969035,5181.901784 1456.656789,5218.324753 1389.754633,5220.115698 1341.771151,5245.221542 1310.958001,5286.489072 1301.779997,5311.332115"/>
    <poly id="524393214" type="building.yes" color="255,230,230" fill="1" layer="-1.00" shape="6767.812979,2645.390416 6846.084793,2580.873130 6818.451867,2547.771515 6739.546780,2612.803456 6738.870622,2612.033873 6698.139746,2646.934662 6592.340388,2734.151854 6619.973321,2767.253229 6726.045611,2679.817214 6970.641901,2961.682213 7011.744164,2926.464177 6767.812979,2645.390416"/>
    <poly id="524576785" type="landuse.industrial" color="209,209,204" fill="1" layer="-3.00" shape="2029.311227,7230.948900 2436.316572,7496.761355 2562.992418,7637.657181 2674.439568,7525.400944 2627.258504,7468.373198 2618.160882,7445.186668 2628.809563,7423.322633 2597.624732,7398.793294 2587.538069,7355.954616 2556.343126,7332.576204 2512.400283,7304.461228 2487.295670,7249.938498 2463.260244,7205.827878 2435.674984,7168.614296 2311.983897,7084.341004 2133.167142,7189.097987 2029.311227,7230.948900"/>
    <poly id="524576786" type="landuse.industrial" color="209,209,204" fill="1" layer="-3.00" shape="614.532726,6379.874855 786.582446,6385.982030 779.330573,6553.457958 1016.510968,6557.814946 1026.662771,6054.124626 955.620514,6066.216898 932.603782,5991.506601 653.971891,6074.066120 621.964087,6138.508508 617.492889,6171.924549 614.532726,6379.874855"/>
    <poly id="524580514" type="landuse.residential" color="235,235,227" fill="1" layer="-3.00" shape="4704.697143,6387.565271 4394.984355,6641.463183 4463.796135,6750.676062 4431.067979,6770.033451 4426.539962,6756.126975 4389.080894,6783.532932 4426.921050,6845.108377 4351.933306,6909.149496 4470.344140,7065.023049 4527.822747,7007.756871 4629.810305,6913.894880 4776.951489,6843.547685 4729.853775,6777.275590 4900.603139,6688.288728 4877.076404,6654.483201 4861.704185,6631.351323 4759.863148,6470.762817 4704.697143,6387.565271"/>
    <poly id="524580515" type="landuse.industrial" color="209,209,204" fill="1" layer="-3.00" shape="4877.076404,6654.483201 5431.935606,6411.374890 5380.270179,6335.809415 4861.704185,6631.351323 4877.076404,6654.483201"/>
    <poly id="524580516" type="landuse.industrial" color="209,209,204" fill="1" layer="-3.00" shape="3159.624631,6782.399503 3637.925369,6512.373824 3742.896619,6476.314889 3694.684678,6138.487644 3479.733338,5984.090918 3072.613125,6046.074518 3147.391521,6672.410419 3159.624631,6782.399503"/>
    <poly id="524580517" type="amenity.college" color="237,199,199" fill="1" layer="-2.00" shape="2861.478246,5404.433993 2702.665382,4676.221648 3235.316709,4537.564701 3335.852482,5012.209893 3002.081968,5282.016888 2968.163788,5304.829721 2964.402914,5335.994393 2861.478246,5404.433993"/>
    <poly id="524582607" type="landuse.industrial" color="209,209,204" fill="1" layer="-3.00" shape="1737.550915,6897.593370 1963.898121,6862.368221 1981.640511,6962.465769 1689.582426,7005.178736 1720.508411,6954.528189 1734.296729,6929.227168 1737.550915,6897.593370"/>
    <poly id="524582609" type="landuse.industrial" color="209,209,204" fill="1" layer="-3.00" shape="2675.938099,7820.621188 2632.265100,7962.350553 2596.228949,8028.482512 2545.316404,8066.740749 2462.722621,8004.215182 2394.021611,8081.606318 2359.801281,8139.653350 2429.928197,8165.107248 2668.098045,8254.980869 2709.194960,8141.538101 2836.150983,8183.655941 2914.924563,7921.592659 2904.781747,7912.706276 2858.201158,7881.479915 2858.091636,7866.660482 2868.724637,7855.332013 2675.938099,7820.621188"/>
    <poly id="524582611" type="landuse.residential" color="235,235,227" fill="1" layer="-3.00" shape="5238.163429,7787.224724 5377.564890,7768.551492 5408.707940,8392.760730 5438.615241,8468.500817 5448.577718,8486.694096 5459.081196,8481.585022 5499.601856,8568.020815 5472.734884,8582.802301 5512.166240,8659.987609 5442.609978,8698.098916 5338.590459,8564.877759 5101.952362,8632.121127 5092.560027,8582.325706 5088.681126,8583.442592 5052.988731,8593.720124 5040.988166,8548.428223 5054.437122,8548.513161 5051.155744,8524.789929 5092.555480,8511.297762 5097.082815,8525.193402 5269.639845,8471.253316 5244.780506,8389.581692 5328.696940,8379.861184 5320.700112,8314.362772 5317.163199,8248.228499 5316.533629,8106.576479 5305.537179,7979.120836 5299.377820,7912.919276 5293.640761,7887.447969 5281.185272,7853.207896 5272.038484,7834.645636 5262.877234,7818.960672 5238.163429,7787.224724"/>
    <poly id="524582612" type="landuse.residential" color="235,235,227" fill="1" layer="-3.00" shape="5299.991460,6737.787631 5346.595632,6728.092811 5353.824736,6765.131115 5331.093959,6771.571635 5342.803286,6861.217478 5307.661290,6891.243391 5303.706424,6910.852551 5227.207058,6915.957680 5211.051965,6822.797881 5246.448421,6810.691521 5236.466221,6755.136172 5299.991460,6737.787631"/>
    <poly id="524582613" type="landuse.industrial" color="209,209,204" fill="1" layer="-3.00" shape="5395.177843,6955.857719 5595.516114,6984.190776 5554.873047,7109.775849 5380.071752,7086.293339 5394.898660,6987.628598 5395.177843,6955.857719"/>
    <poly id="524582614" type="landuse.industrial" color="209,209,204" fill="1" layer="-3.00" shape="5392.284825,6755.929254 5665.683532,6806.861542 5640.142319,6867.881700 5396.264180,6832.226844 5392.284825,6755.929254"/>
    <poly id="524582615" type="landuse.residential" color="235,235,227" fill="1" layer="-3.00" shape="5034.647713,6897.810960 4970.485820,6918.618410 4945.706391,6892.980266 4909.567287,6837.782300 4814.866041,6895.297037 4776.951489,6843.547685 4729.853775,6777.275590 4900.603139,6688.288728 4929.545017,6732.445106 4952.599606,6769.400645 5008.191388,6858.235799 5027.123366,6885.737288 5034.647713,6897.810960"/>
    <poly id="524582616" type="landuse.industrial" color="209,209,204" fill="1" layer="-3.00" shape="4929.545017,6732.445106 5246.412952,6615.989847 5299.991460,6737.787631 5236.466221,6755.136172 5246.448421,6810.691521 5211.051965,6822.797881 5027.123366,6885.737288 5008.191388,6858.235799 4952.599606,6769.400645 4929.545017,6732.445106"/>
    <poly id="524670068" type="landuse.residential" color="235,235,227" fill="1" layer="-3.00" shape="1107.773777,6121.257275 1104.844372,6124.120421 1149.597707,6159.167268 1207.834305,6081.107118 1162.795008,6049.045727 1107.773777,6121.257275"/>
    <poly id="524670070" type="landuse.industrial" color="209,209,204" fill="1" layer="-3.00" shape="1175.878058,6026.316906 1162.795008,6049.045727 1107.773777,6121.257275 1078.598822,6099.624859 1045.293523,5983.790420 1100.075234,5969.532934 1102.590001,5980.820509 1163.273993,5965.861500 1162.899234,5971.612950 1164.759355,6002.250542 1175.878058,6026.316906"/>
    <poly id="524670073" type="landuse.industrial" color="209,209,204" fill="1" layer="-3.00" shape="947.257645,5822.921308 987.366950,5955.491637 1064.439898,5932.860566 1025.998950,5794.129236 947.257645,5822.921308"/>
    <poly id="524670074" type="landuse.residential" color="235,235,227" fill="1" layer="-3.00" shape="912.717365,5977.402318 774.200892,5527.931799 772.239606,5486.315320 760.593700,5479.353754 751.125721,5498.915599 746.372298,5514.733220 652.707092,5525.735405 514.601196,5560.945871 522.244212,5609.904046 549.641053,5601.463375 615.469343,5587.012089 677.788031,5574.843688 710.369876,5572.235643 742.926877,5572.515823 744.328724,5612.390015 741.646457,5654.541990 744.292508,5684.599695 748.817547,5699.091709 767.097948,5737.373732 667.656276,5747.141884 676.889212,5822.895167 705.386688,5822.564951 707.554141,5773.480816 773.464283,5760.823473 780.618479,5787.179467 780.994892,5811.440846 814.456106,6006.247843 870.709369,5989.733923 912.717365,5977.402318"/>
    <poly id="524719719" type="landuse.industrial" color="209,209,204" fill="1" layer="-3.00" shape="6898.376656,3902.298710 6992.202453,4077.045890 6809.335307,4174.238801 6799.531911,4164.900248 6764.271808,4075.034547 6744.722164,3984.720927 6701.864926,3964.698986 6640.790047,3901.177961 6898.376656,3902.298710"/>
    <poly id="524719722" type="landuse.residential" color="235,235,227" fill="1" layer="-3.00" shape="3670.349663,3390.950784 3484.741984,3420.699763 3452.334294,3204.614853 3603.518065,3185.843095 3690.513423,3212.606980 3867.329832,3191.802079 3888.542773,3331.285334 3891.453621,3355.513904 3670.349663,3390.950784"/>
    <poly id="524719724" type="landuse.commercial" color="209,209,204" fill="1" layer="-3.00" shape="4015.735776,4527.604455 4042.496001,4659.566912 3995.176107,4685.161341 4033.797574,4748.402346 4083.336862,4693.289850 4140.299486,4645.834076 4233.145017,4581.715002 4380.835776,4395.011237 4351.758524,4399.416459 4037.005084,4481.331204 4044.908943,4513.416620 4015.735776,4527.604455"/>
    <poly id="524719726" type="landuse.residential" color="235,235,227" fill="1" layer="-3.00" shape="4792.279885,4295.762934 4829.627529,4412.801548 4887.328231,4597.039798 4922.709448,4673.622891 4664.319711,4735.793368 4673.206922,4800.346998 4668.892644,4841.267945 4725.189913,5052.065298 4750.262759,5110.065164 4499.998242,5304.645764 4513.837697,5342.062290 4442.925112,5375.948909 4367.569862,5238.547534 4243.706483,5177.106561 4028.525830,5404.777412 4123.057700,5517.167904 4082.298845,5563.613934 3966.829456,5424.757050 3858.297531,5310.563022 3913.893314,5240.684688 3859.856175,5188.995956 3914.299693,5122.007061 3859.942177,5056.061449 3795.722084,4952.657226 4034.582893,4798.785635 3961.697115,4661.141998 3847.323903,4696.886897 3796.374597,4631.513585 3857.339875,4579.931015 3895.465261,4476.312234 3938.464742,4450.226183 3917.192261,4401.136245 3911.854792,4348.179023 3942.688688,4320.061275 3927.808085,4248.959732 3928.497150,4193.531796 3960.062913,4154.840490 3915.318817,3739.221723 4210.333314,3705.383653 4226.952920,3934.956233 4224.702092,4144.454895 4343.706361,4139.794209 4341.134741,4284.106217 4377.241271,4313.859467 4491.923160,4190.978307 4566.737248,4250.530148 4583.028174,4238.222258 4626.067598,4227.542627 4676.442545,4230.827248 4728.955484,4275.952566 4792.279885,4295.762934"/>
    <poly id="524719728" type="landuse.industrial" color="209,209,204" fill="1" layer="-3.00" shape="6361.197772,3229.037966 6349.956117,3713.143617 6499.357950,3717.236977 6666.239248,3718.242587 6667.837669,3669.716591 6789.969838,3667.329357 6938.574128,3301.158257 6834.084269,3280.581576 6577.779143,3066.842675 6575.337010,3212.430211 6361.197772,3229.037966"/>
    <poly id="524719731" type="landuse.industrial" color="209,209,204" fill="1" layer="-3.00" shape="5208.466322,4155.536747 5289.008071,4411.048380 5299.006682,4597.182778 5347.733825,4610.314997 5487.193439,5151.186643 5301.592518,5230.446273 5244.341922,5261.141843 5085.787411,4642.691482 5064.817686,4647.133748 4930.764974,4242.536569 5208.466322,4155.536747"/>
    <poly id="524719733" type="landuse.industrial" color="209,209,204" fill="1" layer="-3.00" shape="3594.923997,2698.218941 3825.295983,2491.513198 3606.496444,2241.137678 3522.100137,2317.838802 3395.408302,2174.596046 3318.393608,2203.973760 3314.822124,2388.105547 3594.923997,2698.218941"/>
    <poly id="524719735" type="landuse.industrial" color="209,209,204" fill="1" layer="-3.00" shape="3410.502385,2980.203429 3423.393745,2969.912635 3469.462363,3021.165068 3668.845094,2828.753225 3423.337238,2574.682739 3271.067817,2698.171840 3322.927792,2752.938088 3317.946610,2791.031071 3280.424722,2826.528500 3285.983599,2855.472221 3410.502385,2980.203429"/>
    <poly id="524719738" type="building.yes" color="255,230,230" fill="1" layer="-1.00" shape="3346.511601,2648.561506 3362.082208,2664.289885 3383.783666,2643.108358 3368.213152,2627.368901 3346.511601,2648.561506"/>
    <poly id="524719739" type="building.yes" color="255,230,230" fill="1" layer="-1.00" shape="3302.019146,2682.836385 3331.394202,2715.450847 3356.290879,2693.312111 3326.915819,2660.697622 3302.019146,2682.836385"/>
    <poly id="524719741" type="building.yes" color="255,230,230" fill="1" layer="-1.00" shape="3356.182560,2808.118330 3447.637754,2722.237529 3426.153955,2699.651616 3334.698777,2785.532489 3356.182560,2808.118330"/>
    <poly id="524719744" type="building.yes" color="255,230,230" fill="1" layer="-1.00" shape="3402.904228,2784.254670 3480.673380,2868.717370 3548.645987,2806.924497 3470.876804,2722.461600 3402.904228,2784.254670"/>
    <poly id="524719746" type="building.yes" color="255,230,230" fill="1" layer="-1.00" shape="3323.789756,2854.638539 3352.004781,2887.242987 3422.303356,2827.185414 3394.099167,2794.580985 3323.789756,2854.638539"/>
    <poly id="524889972" type="landuse.industrial" color="209,209,204" fill="1" layer="-3.00" shape="2134.605537,5748.239686 2115.875911,5895.984747 2135.899137,5934.294199 2232.560232,5917.789855 2204.439084,5740.765731 2134.605537,5748.239686"/>
    <poly id="524889973" type="landuse.industrial" color="209,209,204" fill="1" layer="-3.00" shape="1696.372871,5256.837466 1948.536790,5681.921882 1843.716047,5700.658666 1855.065278,5733.115966 1742.155543,5746.006308 1664.360399,5597.427109 1685.197069,5473.969680 1657.948070,5397.473441 1641.659436,5398.483663 1613.390271,5305.799148 1696.372871,5256.837466"/>
    <poly id="524889974" type="landuse.residential" color="235,235,227" fill="1" layer="-3.00" shape="648.878739,4807.653631 651.616283,4772.905749 731.252132,4776.490056 729.979257,4721.588489 929.701145,4688.635117 928.430051,4721.713518 939.685110,4742.637880 938.418344,4889.780505 1046.836218,4860.092648 1061.399555,4892.045863 1050.746278,4896.911969 937.990472,4939.477246 785.085030,4998.729036 782.228189,4858.357049 815.480823,4853.475028 817.808789,4920.514776 874.304087,4908.871923 866.223141,4767.248635 755.045648,4781.309515 753.622571,4811.918718 739.074211,4810.941442 648.878739,4807.653631"/>
    <poly id="524893651" type="landuse.industrial" color="209,209,204" fill="1" layer="-3.00" shape="1741.854653,6748.395584 1830.705450,6733.538094 1817.202483,6682.005142 1717.216682,6704.834043 1737.680742,6739.760620 1741.854653,6748.395584"/>
    <poly id="524893653" type="landuse.industrial" color="209,209,204" fill="1" layer="-3.00" shape="1591.152303,6869.545732 1556.363386,6993.457964 1454.267516,6967.155253 1469.953926,6900.270722 1500.360017,6880.890051 1556.322463,6864.043262 1591.152303,6869.545732"/>
    <poly id="524893654" type="landuse.industrial" color="209,209,204" fill="1" layer="-3.00" shape="1739.053924,6882.965073 1623.777848,6861.738041 1612.960066,6903.244356 1734.296729,6929.227168 1737.550915,6897.593370 1739.053924,6882.965073"/>
    <poly id="524893656" type="landuse.residential" color="235,235,227" fill="1" layer="-3.00" shape="917.968879,6960.180162 983.567138,6939.398137 1046.851855,7083.799952 991.706167,7109.098605 969.751096,7071.061163 942.878551,7018.838118 917.968879,6960.180162"/>
    <poly id="524893657" type="landuse.residential" color="235,235,227" fill="1" layer="-3.00" shape="983.515132,6756.896878 992.280886,6851.437743 1045.995541,6846.345520 1040.438477,6900.037462 1149.627437,6896.929080 1131.252777,6803.179427 1238.957854,6786.203018 1169.023868,6681.362151 1147.981196,6697.083433 1123.449561,6712.697159 1105.892772,6723.866927 1064.393710,6748.929154 1017.255264,6754.299417 983.515132,6756.896878"/>
    <poly id="524893658" type="natural.water" color="181,209,209" fill="1" layer="-4.00" shape="889.472609,6861.175398 924.240272,6941.774995 1037.754281,6925.998911 1040.438477,6900.037462 1045.995541,6846.345520 992.280886,6851.437743 889.472609,6861.175398"/>
    <poly id="524903479" type="natural.water" color="181,209,209" fill="1" layer="-4.00" shape="2202.390009,2885.946458 2332.143627,3078.899412 2296.708260,3141.573782 2264.653334,3150.548353 2202.107231,3120.536792 2161.171246,3079.733978 2116.431250,3076.458876 2110.775491,3057.342014 2130.030116,2982.973944 2179.659712,2892.113359 2202.390009,2885.946458"/>
    <poly id="524903486" type="landuse.industrial" color="209,209,204" fill="1" layer="-3.00" shape="6948.893223,580.535442 7009.910186,750.033415 7232.493588,965.799610 7316.021145,857.901914 7352.463090,814.298159 7451.142403,675.026413 7441.076761,667.002496 7284.860821,366.481698 6948.893223,580.535442"/>
    <poly id="524903487" type="landuse.industrial" color="209,209,204" fill="1" layer="-3.00" shape="5106.766957,1714.529866 5278.307407,1657.574830 5289.636053,1687.278024 5358.912980,1878.567808 5370.159396,1922.590980 5119.927821,1938.838802 5083.685499,1827.575902 5092.563711,1743.290351 5106.766957,1714.529866"/>
    <poly id="524903488" type="landuse.residential" color="235,235,227" fill="1" layer="-3.00" shape="4119.818681,1724.089554 4366.428549,2053.607448 4427.128143,2014.561578 4388.095305,1954.504314 4710.852550,1503.046286 4678.501680,1478.494233 4630.182276,1550.881685 4605.921669,1532.177231 4575.386463,1565.421382 4512.894265,1530.203739 4484.588888,1575.032315 4538.980721,1605.553288 4517.726672,1642.353440 4547.818266,1659.946665 4479.465923,1762.206121 4458.584938,1756.247105 4362.882570,1915.727487 4354.004184,1902.059961 4287.990789,1803.255002 4268.471093,1774.189304 4312.204931,1736.478241 4282.124161,1718.885383 4322.513195,1622.158741 4249.690697,1570.671954 4186.100305,1660.268721 4147.938488,1634.504715 4135.146767,1671.843580 4145.452581,1677.223286 4119.818681,1724.089554"/>
    <poly id="524904685" type="landuse.industrial" color="209,209,204" fill="1" layer="-3.00" shape="2726.059407,1708.646687 2794.981580,1672.446373 2809.967683,1688.180282 2836.778965,1680.322650 2838.224775,1648.562466 2910.004762,1619.126811 2848.766101,1437.743206 2800.402873,1449.453644 2797.247702,1478.321660 2808.033191,1508.461316 2832.755090,1541.610083 2664.081752,1615.072003 2699.361518,1668.342845 2726.059407,1708.646687"/>
    <poly id="524906404" type="landuse.industrial" color="209,209,204" fill="1" layer="-3.00" shape="7464.981063,1859.370932 7280.104515,1764.819508 7204.044345,1817.890097 7261.306901,1918.364249 7417.521032,1995.597125 7464.981063,1859.370932"/>
    <poly id="524906405" type="landuse.industrial" color="209,209,204" fill="1" layer="-3.00" shape="7153.294520,1142.296072 7282.526044,1227.434798 7187.764328,1355.463938 7059.597495,1266.428315 7065.895349,1257.895785 7153.294520,1142.296072"/>
    <poly id="524906406" type="leisure.park" color="207,245,201" fill="1" layer="-2.00" shape="6425.285915,1264.386639 6739.244825,1239.989703 6819.697474,1323.401932 6843.709010,1350.583750 6849.217543,1365.196489 6856.829032,1358.899970 6861.973122,1369.348295 6911.077560,1340.309250 6937.698224,1355.572806 6789.669083,1565.882009 6742.970419,1478.096582 6558.801535,1589.735868 6418.578115,1589.642575 6424.757990,1298.545871 6425.285915,1264.386639"/>
    <poly id="524906407" type="building.industrial" color="255,230,230" fill="1" layer="-1.00" shape="5907.648960,2762.793330 5945.804384,2861.768491 6001.731284,2840.490932 5963.576008,2741.515666 5907.648960,2762.793330"/>
    <poly id="524906408" type="landuse.industrial" color="209,209,204" fill="1" layer="-3.00" shape="5951.416146,2678.238479 6053.237078,2672.204861 6187.565110,2739.256127 6008.117827,2843.999938 5951.808267,2898.973122 5893.250305,2747.073520 5951.416146,2678.238479"/>
    <poly id="524906409" type="landuse.industrial" color="209,209,204" fill="1" layer="-3.00" shape="5333.006987,3106.185852 5470.980228,3063.946116 5471.630461,3083.750614 5483.524574,3118.073938 5427.666084,3187.328284 5406.958492,3161.725978 5368.210219,3137.692050 5350.890760,3122.522431 5339.301628,3118.945866 5333.006987,3106.185852"/>
    <poly id="524906410" type="landuse.residential" color="235,235,227" fill="1" layer="-3.00" shape="5438.695035,3483.554770 5313.902985,3561.910634 5295.512157,3469.871612 5281.506692,3476.101331 5268.318564,3454.615499 5352.549972,3359.956397 5415.585573,3451.280110 5438.695035,3483.554770"/>
    <poly id="524906411" type="landuse.industrial" color="209,209,204" fill="1" layer="-3.00" shape="5356.546089,3672.057543 5336.304728,3593.304714 5457.306685,3509.559320 5468.411664,3525.061912 5501.900777,3565.296286 5394.741557,3626.752218 5400.323347,3652.797450 5356.546089,3672.057543"/>
    <poly id="524906412" type="landuse.residential" color="235,235,227" fill="1" layer="-3.00" shape="6734.065504,4325.304238 6770.650351,4472.608639 6742.608797,4488.541293 6757.498758,4513.518213 6792.905899,4586.629786 6766.034324,4601.421748 6777.459628,4623.479621 6720.785877,4654.753126 6724.809554,4659.414656 6697.965619,4669.857558 6686.370472,4646.160302 6518.927740,4730.398136 6445.380813,4564.496814 6595.975540,4436.450335 6734.065504,4325.304238"/>
    <poly id="524910521" type="landuse.industrial" color="209,209,204" fill="1" layer="-3.00" shape="1625.824360,969.341329 1704.583174,1116.354502 1642.105554,1162.086156 1581.003550,1036.749905 1503.812850,1052.552629 1497.965517,995.110514 1593.479716,977.728037 1625.824360,969.341329"/>
    <poly id="524910523" type="landuse.residential" color="235,235,227" fill="1" layer="-3.00" shape="1737.857360,920.793908 1760.830808,954.512849 1765.436270,959.753877 1906.529727,850.015167 1879.436535,822.623932 1737.857360,920.793908"/>
    <poly id="524910524" type="landuse.residential" color="235,235,227" fill="1" layer="-3.00" shape="1238.420492,773.193733 1242.955843,854.705455 1324.118449,856.089407 1350.860270,856.319381 1396.224901,856.709568 1437.795606,857.067189 1474.434201,857.382434 1471.375065,936.991899 1409.149731,937.031974 1413.397294,983.880534 1497.965517,995.110514 1593.479716,977.728037 1625.824360,969.341329 1692.947654,951.913915 1677.389672,924.423057 1641.958941,860.639415 1622.732982,822.249539 1585.305011,778.877917 1546.549606,728.500802 1238.420492,773.193733"/>
    <poly id="524910527" type="man_made.works" color="255,230,230" fill="1" layer="-1.00" shape="1513.427418,1498.434465 1521.862052,1523.517793 1516.111061,1525.427077 1525.106360,1552.119905 1533.031640,1549.487880 1536.266114,1559.088414 1575.827403,1545.938830 1555.173912,1484.562186 1513.427418,1498.434465"/>
    <poly id="524910529" type="man_made.works" color="255,230,230" fill="1" layer="-1.00" shape="1563.976963,1475.673981 1575.711287,1509.074697 1633.968057,1488.870722 1622.244627,1455.470064 1563.976963,1475.673981"/>
    <poly id="524910530" type="landuse.industrial" color="209,209,204" fill="1" layer="-3.00" shape="1481.807546,1616.619978 1641.579549,1551.606964 1650.107827,1471.435859 1648.425760,1430.120478 1443.200006,1507.657095 1481.807546,1616.619978"/>
    <poly id="524910532" type="landuse.residential" color="235,235,227" fill="1" layer="-3.00" shape="2019.543593,1984.520136 2113.339476,2020.190119 2102.570142,2055.920116 2045.632426,2050.227139 1992.353613,2023.771502 2004.748548,2004.401060 2015.354035,1990.150133 2019.543593,1984.520136"/>
    <poly id="524910534" type="landuse.residential" color="235,235,227" fill="1" layer="-3.00" shape="2018.691082,1815.778505 2093.803510,1914.953935 2083.813101,1923.245188 2065.306229,1938.612021 2043.719252,1959.175767 1952.856353,1846.130780 1988.740488,1833.237838 2018.691082,1815.778505"/>
    <poly id="524910536" type="landuse.residential" color="235,235,227" fill="1" layer="-3.00" shape="2288.826558,1497.607604 2197.022034,1622.787249 2260.766510,1661.329931 2296.535665,1749.619513 2326.856968,1739.478791 2317.741404,1718.019080 2370.074661,1718.471354 2363.363709,1687.205142 2441.033560,1649.740526 2428.767291,1588.966588 2504.027106,1560.721997 2523.853475,1554.541131 2512.510658,1523.633211 2398.155822,1573.706547 2288.826558,1497.607604"/>
    <poly id="524910539" type="landuse.residential" color="235,235,227" fill="1" layer="-3.00" shape="2848.766101,1437.743206 2918.176800,1414.074892 2959.994725,1419.627452 2992.892156,1448.807833 3086.719225,1493.533977 3204.491750,1524.612536 3258.520728,1530.858043 3214.987014,1589.411126 3199.099945,1610.078911 3244.612262,1659.588142 3211.784382,1689.936274 3141.511651,1626.777298 3122.910848,1636.620394 3106.248624,1645.428964 3077.885012,1656.017455 3043.240420,1682.122498 3026.224613,1719.225815 3053.993744,1838.478758 2921.833456,1880.427402 2863.769938,1903.275269 2812.330290,1922.329374 2809.050450,1911.765401 2793.723421,1889.100717 2731.831357,1913.442905 2720.451609,1885.600000 2624.110450,1929.841048 2609.759730,1908.335884 2570.662701,1924.177197 2535.825747,1851.067639 2569.774712,1832.603171 2552.616500,1792.271350 2578.317202,1711.020225 2652.827380,1702.999628 2699.361518,1668.342845 2726.059407,1708.646687 2794.981580,1672.446373 2809.967683,1688.180282 2836.778965,1680.322650 2838.224775,1648.562466 2910.004762,1619.126811 2848.766101,1437.743206"/>
    <poly id="525153534" type="natural.water" color="181,209,209" fill="1" layer="-4.00" shape="2000.321559,5609.583947 2110.153320,5550.442081 2096.603501,5636.988550 2077.615531,5681.888005 2037.888769,5703.500576 2006.541329,5697.452432 2000.321559,5609.583947"/>
    <poly id="525153535" type="natural.water" color="181,209,209" fill="1" layer="-4.00" shape="2101.013528,5530.719469 2178.127481,5488.636218 2166.898517,5442.313134 2145.114360,5430.825367 2109.892949,5445.294579 2081.755082,5471.622300 2075.695928,5500.454083 2101.013528,5530.719469"/>
    <poly id="526542660" type="landuse.industrial" color="209,209,204" fill="1" layer="-3.00" shape="5283.363428,7172.352717 5257.346563,7356.743619 5189.479239,7341.705103 5194.022377,7308.167783 5194.242022,7259.707405 5188.472415,7218.155565 5177.018905,7173.421868 5211.543248,7166.774969 5271.816168,7169.152527 5283.363428,7172.352717"/>
    <poly id="526542661" type="landuse.industrial" color="209,209,204" fill="1" layer="-3.00" shape="6205.207942,7470.234999 6226.814854,7591.167141 6235.156746,7634.568253 6249.210577,7688.998291 6200.311066,7696.081398 6194.714826,7737.046527 6021.830064,7760.942921 5999.703538,7632.491960 6016.128973,7615.881240 6029.461888,7554.189346 6040.521570,7487.264839 6166.904512,7462.958131 6205.207942,7470.234999"/>
    <poly id="526772207" type="landuse.farmyard" color="194,194,130" fill="1" layer="-3.00" shape="7888.166460,6990.806188 8667.545863,6617.933620 8683.083425,6701.275333 8703.853597,6849.362648 8706.355140,6960.311669 8752.486157,7134.046522 7945.856385,7310.938351 7888.166460,6990.806188"/>
    <poly id="526773074" type="landuse.farmyard" color="194,194,130" fill="1" layer="-3.00" shape="8065.997254,2067.623953 8125.094420,2879.435212 8146.151231,2997.498024 8425.202577,2875.157630 8350.006447,2042.406276 8196.544693,2035.269058 8065.997254,2067.623953"/>
    <poly id="527017949" type="landuse.farmyard" color="194,194,130" fill="1" layer="-3.00" shape="1040.847122,7240.884196 980.566338,7421.769457 1191.064744,7485.393712 1176.667567,7536.109868 1501.325296,7631.787075 1564.988322,7413.614671 1569.575690,7407.014302 1301.848283,7327.543118 1268.222655,7315.699038 1151.085781,7266.680271 1158.154747,7256.338585 1049.770445,7217.853916 1040.847122,7240.884196"/>
    <poly id="527605456" type="landuse.farmyard" color="194,194,130" fill="1" layer="-3.00" shape="6973.067321,1763.273740 7230.887763,1543.652463 7386.801606,1668.680844 7280.104515,1764.819508 7204.044345,1817.890097 7113.848938,1889.329252 7015.795829,1798.312389 6998.129843,1822.426722 6950.782310,1785.034376 6973.067321,1763.273740"/>