<?xml version="1.0" encoding="UTF-8"?>

<!-- generated on 2022-11-05 16:27:34 by Eclipse SUMO duarouter Version 1.13.0
<configuration xmlns:xsi="http://www.w3.org/2001/XMLSchema-instance" xsi:noNamespaceSchemaLocation="http://sumo.dlr.de/xsd/duarouterConfiguration.xsd">

    <input>
        <net-file value="test/osm.net.xml"/>
        <route-files value="test/trips.trips.xml"/>
    </input>

    <output>
        <output-file value="test/routes.rou.xml"/>
        <alternatives-output value="test/routes.rou.alt.xml"/>
    </output>

    <time>
        <begin value="0"/>
        <end value="3600"/>
    </time>

    <report>
        <no-warnings value="true"/>
        <ignore-errors value="true"/>
        <no-step-log value="true"/>
    </report>

</configuration>
-->

<routes xmlns:xsi="http://www.w3.org/2001/XMLSchema-instance" xsi:noNamespaceSchemaLocation="http://sumo.dlr.de/xsd/routes_file.xsd">
    <vehicle id="0" depart="0.00">
        <route edges="551237841#4 551237841#6 52058581#0 52058581#1 52058581#3 52058581#4 52058581#5 52058581#6 52058581#7 52058581#8 52058581#9 -452900442 -481206842#0 -302710871#6 -302710871#5 -302710871#4 -169244535#5 -169244535#4 -169244535#3"/>
    </vehicle>
    <vehicle id="1" depart="1.00">
        <route edges="-616790755#1 -616790755#0 616790754#1 616790754#2 -616781882#2 -616790802#1 -616790802#0 -625666454 936316091#4 936316091#5 936316091#6 936316088#0 551237841#1 551237841#2 551237841#3 551237841#4 551237887#0 551237887#1 551237887#2 551237887#3 -551237846#3 551238591#0 -551238591#0"/>
    </vehicle>
    <vehicle id="2" depart="2.00">
        <route edges="616748088 -616748088 -452900417#2 -452900417#1 -452900417#0 -695704634#13 -695704634#11 -695704634#9 -695704634#8 -695704634#7 -695704634#6 -695704634#5 -695704634#4 -695704634#3 -695704634#2 -695704634#1 -695704634#0 -695704635 -52058581#8 -52058581#7 -52058581#6 -52058581#5 -52058581#4 -52058581#3 -52058581#1 -52058581#0 52058628#0 551237860#0 551237860#1 551237860#2 551237860#3 551237860#4 551237860#5 551237861#0 551237861#1"/>
    </vehicle>
    <vehicle id="3" depart="3.00">
        <route edges="616972441#2 -481206840#1 -481206840#0 481206842#0 481206842#1 -695704635 -52058581#8 -52058581#7 -52058581#6 -52058581#5 -52058581#4 -452900377#3 -452900377#2"/>
    </vehicle>
    <vehicle id="4" depart="4.00">
        <route edges="-695708753#2 -695708753#1 695708754#1 -616790738 616790832 52058581#8 52058581#9 695704634#0 695704634#1 695704634#2 695704634#3 695704634#4 695704634#5 695704634#6 695704634#7 695704634#8 695704634#9 695704634#11 695704634#13 452900417#0 452900417#1 452900417#2 452900417#3 164458270#1 164458270#2 695706747#0 695706747#1 294321523#0 294321523#1 294321523#2 -294321523#2"/>
    </vehicle>
    <vehicle id="5" depart="5.00">
        <route edges="-616748224 -616748284#1 -616748284#0 -695704634#13 -695704634#11 -695704634#9 -695704634#8 -695704634#7 -695704634#6 -695704634#5 -695704634#4 -695704634#3 -695704634#2 -695704634#1 -695704634#0 -452900442 -481206842#0 -302710871#6 -302710871#5 -302710871#4 169244535#6"/>
    </vehicle>
    <vehicle id="7" depart="7.00">
        <route edges="551237844#7 551237858 551237841#1 551237841#2 551237841#3 551237841#4 551237841#6 52058581#0 52058581#1 52058581#3 52058581#4 52058581#5 450601289"/>
    </vehicle>
    <vehicle id="8" depart="8.00">
        <route edges="-616748284#0 -695704634#13 -695704634#11 -695704634#9 -695704634#8 -695704634#7 -695704634#6 -452900432#1 452900432#1"/>
    </vehicle>
    <vehicle id="9" depart="9.00">
        <route edges="616790763#0 -616790763#0 -169244320#0 169244089#7 -452900426 452900367#3 452900366#0 452900366#1 169244325#1 169244325#2 169244325#3 169244325#4 169244325#5 169244325#7 169244325#8 452900379#1 452900379#2 452900379#4 452900379#5 -625666453 -625666452 -169243896#2 -169243896#1"/>
    </vehicle>
    <vehicle id="11" depart="11.00">
        <route edges="-616790989#3 616790989#3 936316088#0 551237841#1 551237841#2 551237841#3 551237841#4 -551237847#3"/>
    </vehicle>
    <vehicle id="12" depart="12.00">
        <route edges="695708765 -294321523#0 -695706747#1 -695706747#0 -164458270#2 -164458270#1 -452900417#3 -452900417#2 -452900417#1 -452900417#0 -695704634#13 -695704634#11 -695704634#9 -695704634#8 -695704634#7 -695704634#6 -695704634#5 -695704634#4 -695704634#3 -695704634#2 -695704634#1 -695704634#0 -695704635 -616790879#1 -616790879#0"/>
    </vehicle>
    <vehicle id="13" depart="13.00">
        <route edges="-452900383#1 452900383#1 695704636#0 695704636#1 302710875#1 302710875#2 302710875#3 -452900437#1 -616972387 -452900468#5 -452900468#4 -452900468#3 -452900392"/>
    </vehicle>
    <vehicle id="14" depart="14.00">
        <route edges="616790841 -616790841 551237848#2 551237848#3 -551237846#5 -551237846#4 -551237846#3 -551237846#2 -551237846#1 551237881#0 551237881#1 551237881#2 551237881#3 551237882#1 964166551 -452900474#10 -452900474#9 -452900474#8 -452900474#7 452900474#7"/>
    </vehicle>
    <vehicle id="17" depart="17.00">
        <route edges="-625666456#5 -625666456#4 -625666456#3 -625666456#2 -625666456#1 -625666456#0 616790811#0 616790811#1 -695673136#1 -695673136#0 -616790777#1 -616790777#0 936316091#5 936316091#6 936316088#0 551237841#1 551237841#2 551237841#3 551237841#4 551237841#6 52058581#0 52058581#1 52058581#3 52058581#4 52058581#5 52058581#6 450601290#0 450601290#1 450601290#2 450601290#3 695708751#1 450601293#0"/>
    </vehicle>
    <vehicle id="18" depart="18.00">
        <route edges="616790797 551237846#2 551237846#3 -551237887#3 -551237887#2 -551237887#1 -551237887#0 551237841#6 52058628#0"/>
    </vehicle>
    <vehicle id="20" depart="20.00">
        <route edges="551237875#1 -551237874#1 -551237885#4 -551237885#3 -551237885#2 -551237885#1 616790797 551237846#2 551237846#3 -551237887#3 -551237887#2 -551237887#1 -551237887#0 551237841#6 52058581#0 52058581#1 52058581#3 52058581#4 52058581#5 52058581#6 52058581#7 52058581#8 52058581#9 -452900442 -481206842#0 481206840#0 481206840#1 481206840#2 481206840#3 302710873#1 302710873#2 302710873#3 302710873#5 302710873#6 302710873#7 302710873#9 302710873#10 302710873#12 302710873#14 -302710873#14"/>
    </vehicle>
    <vehicle id="22" depart="22.00">
        <route edges="-452900371#0 452900371#0 452900371#1 -452900439#0 695704634#7 695704634#8 695704634#9 616748190#0 -616748190#0"/>
    </vehicle>
    <vehicle id="23" depart="23.00">
        <route edges="-452900417#4 -452900417#3 -452900417#2 -452900417#1 -452900417#0 -695704634#13 -695704634#11 -695704634#9 -695704634#8 -695704634#7 -695704634#6 -695704634#5 -695704634#4 -695704634#3 -695704634#2 -695704634#1 -695704634#0 -695704635 -52058581#8 -52058581#7 -52058581#6 -52058581#5 -52058581#4 -52058581#3 -52058581#1 -52058581#0 52058628#0 52058628#1 52058628#2 52058628#3 695670296#0 -616790936 616790939#1 616790939#2 616790939#3 616790743 -616790743"/>
    </vehicle>
    <vehicle id="25" depart="25.00">
        <route edges="-625666451#0 -169243898#2 -169243898#1 -169243898#0 -625666454 936316091#4 936316091#5 936316091#6 936316088#0 -551237858 551237845#0 551237845#1 551237845#2 551237845#3 551237845#4 551237845#5 551237845#6 551237845#7 551237846#0 551237881#0 551237881#1 551237881#2 551237884#0 -551237884#0"/>
    </vehicle>
    <vehicle id="27" depart="27.00">
        <route edges="551237844#5 551237856#2 551237856#3 551237841#2 551237841#3 551237841#4 551237841#6 52058581#0 52058581#1 52058581#3 52058581#4 52058581#5 52058581#6 52058581#7 52058581#8 52058581#9 -452900442 -481206842#0 481206840#0 481206840#1 481206840#2"/>
    </vehicle>
    <vehicle id="31" depart="31.00">
        <route edges="450601295#1 -450601296#2 450601296#2 -695653704 -450601295#0 -450601294#1 -294321523#4 -294321523#3 -294321523#2 -294321523#1 -294321523#0 -695706747#1 -695706747#0 -164458270#2 -164458270#1 -452900417#3 -452900417#2 -452900417#1 -452900417#0 -695704634#13 -695704634#11 -695704634#9 -695704634#8 -695704634#7 -695704634#6 -695704634#5 -695704634#4 -695704634#3 -695704634#2 -695704634#1 -695704634#0 -695704635 -52058581#8 -52058581#7 -52058581#6 -52058581#5 -52058581#4 -52058581#3 -52058581#1 -52058581#0 52058628#0 52058628#1 -551237870 551237868#1"/>
    </vehicle>
    <vehicle id="32" depart="32.00">
        <route edges="616790828#1 169244089#5 169244089#6 169244089#7 169244089#8 452900422#2 452900474#1 452900474#3 452900474#4 452900474#5 452900474#6 452900474#7 452900474#8 452900474#9 452900474#10 -964166551 -551237882#1 -551237881#3 -551237881#2 -551237881#1 -551237881#0 551237846#1 551237846#2 551237846#3 -551237887#3 -551237887#2 -551237887#1 -551237887#0 551237841#6 52058628#0 52058628#1 52058628#2 52058628#3 695670296#0 695670296#3 616790760#0 616790760#1 616790760#2 616790760#3 616790760#4 616790736#1 616790750#0 616790750#1 616790750#2 616790750#3 616790750#4 616790750#5 -616790740#3 -616790740#2 -616790740#1 616790740#1"/>
    </vehicle>
    <vehicle id="37" depart="37.00">
        <route edges="551237845#7 551237846#0 551237881#0 551237881#1 551237881#2 551237881#3 551237882#1 964166551 -452900474#10 -452900474#9 -452900474#8 -452900474#7 -452900474#6 -452900474#5 -452900474#4 -452900474#3 -452900474#1 -452900474#0 -452900422#0 452900366#0 452900366#1 169244325#1 169244325#2 169244325#3 169244325#4 169244325#5 169244325#7 169244325#8 452900379#1 452900379#2 452900379#4 452900379#5 -625666453 -616790776#1 963831980 -169243896#0 -625666451#2 -625666451#1 -625666451#0 -169243898#2 -169243898#1 -169243898#0 -625666454"/>
    </vehicle>
    <vehicle id="40" depart="40.00">
        <route edges="452900366#2 616790732 -169244325#1 452900367#2 452900367#3 452900422#0 452900422#2 452900474#1 452900474#3 452900474#4 616790785#0 -616790723#1"/>
    </vehicle>
    <vehicle id="42" depart="42.00">
        <route edges="-695671246#1 -695671246#0 -452900379#7 -452900379#6 -452900379#5 -452900379#4 -452900379#2 -452900379#1 -452900379#0 -169244325#7 -169244325#5 -169244325#4 -169244325#3 -169244325#2 -169244325#1 452900367#2 452900367#3 452900422#0 452900422#2 452900474#1 452900474#3 452900474#4 452900474#5 452900474#6 452900474#7 452900474#8 452900474#9 452900474#10 -964166551 -551237882#1 -551237881#3 -551237881#2 -551237881#1 -551237881#0 551237846#1 551237846#2 551237846#3 551237846#4 551237849#0 -551237888#0"/>
    </vehicle>
    <vehicle id="43" depart="43.00">
        <route edges="964183715 616972354#1 616972354#2 169244089#6 169244089#7 169244089#8 452900422#2 452900474#1 452900474#3 452900474#4 452900474#5 452900474#6 452900474#7 452900474#8 452900474#9 452900474#10 -964166551 -551237882#1 -551237881#3 -551237881#2 -551237881#1 -551237881#0 551237846#1 551237846#2 551237846#3 -551237887#3 -551237887#2 -551237887#1 -551237887#0 551237841#6 52058581#0 52058581#1 52058581#3 52058581#4 52058581#5 52058581#6 52058581#7 52058581#8 52058581#9 695704634#0 695704634#1 695704634#2 695704634#3 695704634#4 695704634#5 695704634#6 695704634#7 695704634#8 695704634#9 695704634#11 695704634#13 452900417#0 452900417#1 452900417#2 452900417#3 164458270#1 164458270#2 695706747#0 695706747#1 294321523#0 294321523#1 294321523#2"/>
    </vehicle>
    <vehicle id="44" depart="44.00">
        <route edges="-452900379#6 -625666453 -616790776#1 963831980 -169243896#0 -625666451#2 -625666451#1 -625666451#0 -169243898#2 -169243898#1 -169243898#0 -625666454 936316091#4 936316091#5 936316091#6 936316088#0 551237841#1 551237841#2 551237841#3 551237841#4 551237841#6 52058581#0 52058581#1 52058581#3 52058581#4 52058581#5 52058581#6 52058581#7 52058581#8 52058581#9 -452900442 -481206842#0 481206840#0 481206840#1 481206840#2 481206840#3 302710873#1 302710873#2 302710873#3 -302710873#3"/>
    </vehicle>
    <vehicle id="45" depart="45.00">
        <route edges="-452900452#1 452900452#1 -169244325#4 -169244325#3 -169244325#2 -169244325#1 452900367#2 452900367#3 452900422#0 452900422#2 452900474#1 452900474#3 452900474#4 452900474#5 452900474#6 452900474#7 452900474#8 452900474#9 452900474#10 -964166551 -551237882#1 -551237881#3 -551237881#2 -551237881#1 -551237881#0 -551237846#0 551237844#0 551237844#1 551237844#2 551237844#3 551237844#4 551237844#5 551237856#2 551237856#3 551237841#2 551237841#3"/>
    </vehicle>
    <vehicle id="46" depart="46.00">
        <route edges="616790750#1 -616790750#1 -616790750#0 616790736#2 616790808 551237840#1 551237840#2 551237840#3 551237840#4 695671247#0 -695671247#0"/>
    </vehicle>
    <vehicle id="48" depart="48.00">
        <route edges="964181348 169244089#1 169244089#2 169244089#4 169244089#5 169244089#6 169244089#7 169244089#8 452900422#2 452900474#1 452900474#3 452900474#4 452900474#5 452900474#6 452900474#7 452900474#8 452900474#9 452900474#10 -964166551 -551237882#1 -551237881#3 -551237881#2 -551237881#1 -551237881#0 551237846#1 551237846#2 551237846#3 -551237887#3 -551237887#2 -551237887#1 -551237887#0 551237841#6 52058581#0 52058581#1 52058581#3 52058581#4 52058581#5 52058581#6 52058581#7 52058581#8 52058581#9 -452900442 -481206842#0 481206840#0 481206840#1 481206840#2 481206840#3 302710873#1 302710873#2 302710873#3 302710873#5 302710873#6 302710873#7 302710873#9"/>
    </vehicle>
    <vehicle id="49" depart="49.00">
        <route edges="963630888 -695673136#0 -616790777#1 -616790777#0 936316091#5 936316091#6 936316088#0 -551237858 551237845#0 551237845#1 551237845#2 551237845#3 551237845#4 551237845#5 551237845#6 551237845#7 551237846#0 551237881#0 551237881#1 551237881#2 551237881#3 551237882#1 964166551 -452900474#10 -452900474#9 -452900474#8 -452900474#7 -452900474#6 -452900474#5 -452900474#4 -452900474#3 -452900474#1 -452900474#0 -169244089#8 -169244089#7 -169244089#6 -616972354#2 616972354#2"/>
    </vehicle>
    <vehicle id="50" depart="50.00">
        <route edges="-169244089#4 169244089#4 169244089#5 169244089#6 169244089#7 169244089#8 452900422#2 452900474#1 452900474#3 452900474#4 452900474#5 452900474#6 452900474#7 452900474#8 452900474#9 452900474#10 -964166551 -551237882#1 -551237881#3 -551237881#2 -551237881#1 -551237881#0 551237846#1 551237846#2 551237846#3 -551237887#3 -551237887#2 -551237887#1 -551237887#0 551237841#6 52058581#0 52058581#1 52058581#3 52058581#4 52058581#5 52058581#6 52058581#7 52058581#8 52058581#9 695704634#0 695704634#1 695704634#2 695704634#3 695704634#4 695704634#5 695704634#6 695704634#7 695704634#8 695704634#9 695704634#11 695704634#13 452900417#0 452900417#1 452900417#2 616748088"/>
    </vehicle>
    <vehicle id="53" depart="53.00">
        <route edges="-452900468#3 452900468#3 452900468#4 452900468#5 616972387 452900437#1 -302710875#3 -302710875#2 -302710875#1 -302710875#0 -695704636#0"/>
    </vehicle>
    <vehicle id="56" depart="56.00">
        <route edges="169244090#3 695670294#1 695670294#2 625666450#1 452900422#2 452900474#1 452900474#3 452900474#4 452900474#5 452900474#6 452900474#7 452900474#8 452900474#9 452900474#10 -964166551 -551237882#1 -551237881#3 -551237881#2 -551237881#1 -551237881#0 551237846#1 551237846#2 551237846#3 -551237887#3 -551237887#2 -551237887#1 -551237887#0 551237841#6 52058628#0 551237860#0 551237860#1 551237860#2 551237860#3 551237860#4 551237860#5 551237860#6 -551237860#6"/>
    </vehicle>
    <vehicle id="57" depart="57.00">
        <route edges="626483693#0 626483693#1 -616790755#1 -616790755#0 616790754#1 616790754#2 -616781882#2 -616790802#1 -616790802#0 -625666454 936316091#4 936316091#5 936316091#6 936316088#0 551237841#1 551237841#2 551237841#3 551237841#4 551237841#6 52058581#0 52058581#1 52058581#3 52058581#4 52058581#5 52058581#6 52058581#7 52058581#8 52058581#9 -452900442 -481206842#0 481206840#0 481206840#1 481206840#2 481206840#3 302710873#1 302710873#2 302710873#3 302710873#5 302710873#6 302710873#7 302710873#9 302710873#10 302710873#12 302710873#14 695708749#0 -616972494 616972413#1"/>
    </vehicle>
    <vehicle id="58" depart="58.00">
        <route edges="-616790818#0 695670295#1 616790737#0 616790737#1 -616790992 -695673136#1 -695673136#0 -616790777#1 -616790777#0 936316091#5 936316091#6 936316088#0 -551237858 551237845#0 551237845#1"/>
    </vehicle>
    <vehicle id="59" depart="59.00">
        <route edges="452900471#0 452900471#1 -169244325#5 -169244325#4 -169244325#3 -169244325#2 -169244325#1 452900367#2 452900367#3 452900422#0 452900422#2 452900474#1 452900474#3 452900474#4 452900474#5 452900474#6 452900474#7 452900474#8 452900474#9 452900474#10 -964166551 -551237882#1 -551237881#3 -551237881#2 -551237881#1 -551237881#0 551237846#1 551237846#2 551237846#3 551237846#4 551237846#5 551237846#6 -551237846#6"/>
    </vehicle>
    <vehicle id="60" depart="60.00">
        <route edges="616787598 302711307#3 302711309#0 302711309#1 302711309#2 302711309#3"/>
    </vehicle>
    <vehicle id="61" depart="61.00">
        <route edges="616790735#1 616790989#1 616790989#2 616790989#3 936316088#0 551237841#1 551237841#2 551237841#3 551237841#4 551237841#6 52058581#0 52058581#1 52058581#3 52058581#4 52058581#5 52058581#6 52058581#7 52058581#8 52058581#9 695704634#0 695704634#1 695704634#2 -302710876#1 -302710876#0 -302710875#3 -302710875#2 -302710875#1 302710875#1"/>
    </vehicle>
    <vehicle id="63" depart="63.00">
        <route edges="-169244325#2 -169244325#1 452900367#2 452900367#3 452900422#0 452900422#2 452900474#1 452900474#3 452900474#4 452900474#5 452900474#6 452900474#7 452900474#8 452900474#9 452900474#10 -964166551 -551237882#1 -551237881#3 -551237881#2 -551237881#1 -551237881#0 551237846#1 551237846#2 551237846#3 -551237887#3 -551237887#2 -551237887#1 -551237887#0 551237841#6 52058581#0 52058581#1 52058581#3 52058581#4 52058581#5 52058581#6 52058581#7 52058581#8 52058581#9 695704634#0 695704634#1 695704634#2 695704634#3 695704634#4 695704634#5 695704634#6 695708742 452900439#1 695708745#0"/>
    </vehicle>
    <vehicle id="64" depart="64.00">
        <route edges="616972356 169244535#5 302710871#4 302710871#5 302710871#6 481206842#0 695708755 616790847 616790874#1"/>
    </vehicle>
    <vehicle id="66" depart="66.00">
        <route edges="616972354#2 169244089#6 169244089#7 169244089#8 452900422#2 452900474#1 452900474#3 452900474#4 452900474#5 452900474#6 452900474#7 452900474#8 452900474#9 452900474#10 -964166551 -551237882#1 -551237881#3 -551237881#2 -551237881#1 -551237881#0 551237846#1 551237846#2 551237846#3 -551237887#3 -551237887#2 -551237887#1 -551237887#0 551237841#6 52058581#0 -695653485#6 -695653485#5 -695653485#4 -695653485#3 -695653485#2 934655665#0 -934655664#4 -934655664#3 -934655664#2 -934655664#1 934655664#1"/>
    </vehicle>
    <vehicle id="69" depart="69.00">
        <route edges="616790720 616790818#1 616790818#2 169244090#3 695670294#1 695670294#2 625666450#1 452900422#2 452900474#1 452900474#3 452900474#4 452900474#5 -452900474#5"/>
    </vehicle>
    <vehicle id="70" depart="70.00">
        <route edges="-964188826 302710871#3 302710871#4 302710871#5 302710871#6 481206842#0 481206842#1 -695704635 -52058581#8 -616790832 616790738 450601291#0 450601291#1 450601291#2"/>
    </vehicle>
    <vehicle id="71" depart="71.00">
        <route edges="-616790748 616790721#1 616790721#2 616790721#3 -616790862 452900366#1 452900367#2 452900367#3 452900422#0 452900422#2 452900474#1 452900474#3 452900474#4 452900474#5 452900474#6 452900474#7 452900474#8 452900474#9 452900474#10 -964166551 -551237882#1 -551237881#3 -551237881#2 -551237881#1 -551237881#0 551237846#1 551237846#2 551237846#3 -551237887#3 -551237887#2 -551237887#1 -551237887#0 551237841#6 52058581#0 52058581#1 52058581#3 52058581#4 52058581#5 52058581#6 52058581#7 52058581#8 52058581#9 -452900442 -481206842#0 481206840#0 481206840#1 481206840#2 481206840#3 302710873#1 302710873#2 302710873#3 302710873#5 302710873#6 302710873#7 302710873#9 302710873#10 302710873#12 616972418"/>
    </vehicle>
    <vehicle id="74" depart="74.00">
        <route edges="-551237887#1 551237887#1 551237887#2 551237887#3 -551237846#3 -551237846#2 -551237846#1 551237881#0 551237881#1 551237881#2 551237881#3 551237882#1 964166551 -452900474#10 -452900474#9 -452900474#8 -452900474#7 -452900474#6 -452900474#5 -452900474#4 -452900474#3 -452900474#1 -452900474#0 -452900422#0 452900366#0 452900366#1 169244325#1 169244325#2 169244325#3 -616790796"/>
    </vehicle>
    <vehicle id="75" depart="75.00">
        <route edges="964181258 -551237881#3 -551237881#2 -551237881#1 -551237881#0 551237846#1 551237846#2 551237846#3 551237846#4 551237846#5 551237846#6 551237847#0"/>
    </vehicle>
    <vehicle id="76" depart="76.00">
        <route edges="-962878943 -616781939#0 626483693#1 -616790755#1 -616790755#0 616790754#1 616790754#2 -616781882#2 -616790802#1 -616790802#0 -625666454 936316091#4 936316091#5 936316091#6 936316088#0 551237841#1 551237841#2 551237841#3 551237841#4 551237841#6 52058581#0 52058581#1 52058581#3 52058581#4 52058581#5 52058581#6 52058581#7 52058581#8 52058581#9 -452900442 -481206842#0 -302710871#6 -302710871#5 -302710871#4 -302710871#3 -302710871#2 -302710871#1 302710871#1"/>
    </vehicle>
    <vehicle id="77" depart="77.00">
        <route edges="-452900474#8 452900474#8 452900474#9 452900474#10 -964166551 -551237882#1 -551237881#3 -551237881#2 -551237886#2 -551237886#1 -551238593"/>
    </vehicle>
    <vehicle id="78" depart="78.00">
        <route edges="-616790989#0 -616790988 616790989#1 616790989#2 616790989#3 936316088#0 551237841#1 551237841#2 551237841#3 551237841#4 551237841#6 52058581#0 52058581#1 52058581#3 52058581#4 52058581#5 52058581#6 52058581#7 52058581#8 52058581#9 695704634#0 695704634#1 695704634#2 695704634#3 695704634#4 695704634#5 695704634#6 695704634#7 695704634#8 695704634#9 695704634#11 695704634#13 616748284#0 616748284#1 616748284#2 616748284#3 616748284#4 452900398 452900424"/>
    </vehicle>
    <vehicle id="85" depart="85.00">
        <route edges="695704634#1 -695704634#1 -695704634#0 -452900442 695708755 452900377#0 452900377#1"/>
    </vehicle>
    <vehicle id="86" depart="86.00">
        <route edges="-964182352 -481206840#2 -481206840#1 -481206840#0 481206842#0 481206842#1 -695704635 -52058581#8 -52058581#7 -52058581#6 -52058581#5 -52058581#4 -52058581#3 -52058581#1 -52058581#0 52058628#0 52058628#1 52058628#2 52058628#3 695670296#0 695670296#3 616790760#0 616790760#1 616790760#2 616790760#3 616790760#4 616790736#1 616790750#0 616790750#1 616790750#2 616790750#3 616790750#4 616790750#5 616790750#6"/>
    </vehicle>
    <vehicle id="87" depart="87.00">
        <route edges="616790761 -616790761 616790939#2 616790939#3 616790939#4 616790939#5 616790939#6 616790933#1 -616790715 -616790716#0 -551237860#7 -551237860#6 -551237860#5 -551237860#4 -551237860#3 -551237860#2 -551237860#1 -551237860#0 52058628#1 -551237870"/>
    </vehicle>
    <vehicle id="88" depart="88.00">
        <route edges="-452900413#1 -452900413#0 -616748284#3 -616748284#2 -616748284#1 -616748284#0 -695704634#13 -695704634#11 -695704634#9 -695704634#8 -695704634#7 -695704634#6"/>
    </vehicle>
    <vehicle id="90" depart="90.00">
        <route edges="551237888#1 -551237848#2 -551237848#1 -551237848#0 -551237887#0 551237841#6 52058628#0 551237860#0 551237860#1 551237860#2 551237860#3 551237860#4 551237860#5"/>
    </vehicle>
    <vehicle id="91" depart="91.00">
        <route edges="963933950#0 934655664#1 934655664#2 934655664#3 934655664#4 616790907#1 695653485#2 695653485#3 695653485#4 695653485#5 695653485#6 52058581#1 52058581#3 52058581#4 52058581#5 52058581#6 52058581#7 52058581#8 52058581#9 695704634#0 695704634#1 695704634#2 695704634#3 695704634#4 695704634#5 695704634#6 -452900373#6 -452900399"/>
    </vehicle>
    <vehicle id="92" depart="92.00">
        <route edges="-695673136#1 -695673136#0 -616790777#1 -616790777#0 936316091#5 936316091#6 936316088#0 551237841#1 551237841#2 551237841#3 551237841#4 551237841#6 52058581#0 -695653485#6 -695653485#5 -695653485#4 -695708756 -450601287#2 -616790895"/>
    </vehicle>
    <vehicle id="94" depart="94.00">
        <route edges="-551237881#6 -551237881#5 -551237881#4 -551237881#3 -551237881#2 -551237881#1 -551237881#0 551237846#1 551237846#2 551237846#3 -551237887#3 -551237887#2 -551237887#1 -551237887#0 551237841#6 52058581#0 52058581#1 52058581#3 52058581#4 52058581#5 52058581#6 52058581#7 52058581#8 52058581#9 695704634#0 695704634#1 695704634#2 695704634#3 695704634#4 695704634#5 695704634#6 695704634#7 695704634#8 695704634#9 695704634#11 695704634#13 452900417#0 452900417#1 452900417#2 452900417#3 164458270#1 164458270#2 695706747#0 695706747#1 294321523#0 -695708765"/>
    </vehicle>
    <vehicle id="95" depart="95.00">
        <route edges="-695708753#2 695708753#2 695708753#3 -450601290#2 -450601290#1 -450601290#0 -52058581#6 -52058581#5 -52058581#4 -52058581#3 -52058581#1 -695653485#6 -695653485#5 -616790746"/>
    </vehicle>
    <vehicle id="96" depart="96.00">
        <route edges="-616790723#1 616790979 452900474#4 452900474#5 452900474#6 452900474#7 452900474#8 452900474#9 452900474#10 -964166551 -551237882#1 -551237881#3 -551237881#2 -551237881#1 -551237881#0 551237846#1 551237846#2 551237846#3 -551237887#3 -551237887#2 -551237887#1 -551237887#0 551237841#6 52058581#0 52058581#1 52058581#3 52058581#4 52058581#5 52058581#6 52058581#7 52058581#8 52058581#9 695704634#0 695704634#1 695704634#2 695704634#3 695704634#4 695704634#5 695704634#6 695704634#7"/>
    </vehicle>
    <vehicle id="97" depart="97.00">
        <route edges="-963597865 625666456#4 625666456#5 -452900379#2 -452900379#1 -452900379#0 -169244325#7 -169244325#5 -169244325#4 -169244325#3 -169244325#2 -169244325#1 452900367#2 452900426 -169244089#7 -169244089#6 -616972354#2 -616972354#1 616972355"/>
    </vehicle>
    <vehicle id="98" depart="98.00">
        <route edges="450601291#1 450601291#2 -450601290#1 -450601290#0 52058581#7 52058581#8 52058581#9 695704634#0 695704634#1 695704634#2 -302710876#1 -302710876#0 -302710875#3 -302710875#2 -302710875#1 -302710875#0 -302710874"/>
    </vehicle>
    <vehicle id="99" depart="99.00">
        <route edges="964203433 -616790802#0 -625666454 936316091#4 936316091#5 936316091#6 936316088#0 551237841#1 551237841#2 551237841#3 551237841#4 551237841#6 52058581#0 -695653485#6 -695653485#5 -695653485#4 -695653485#3 -695653485#2 934655665#0 616790791#1 616790904#1"/>
    </vehicle>
    <vehicle id="100" depart="100.00">
        <route edges="936316091#6 936316088#0 551237841#1 551237841#2 551237841#3 551237841#4 551237841#6 52058581#0 52058581#1 52058581#3 52058581#4 52058581#5 52058581#6 52058581#7 52058581#8 52058581#9 695704634#0 695704634#1 695704634#2 695704634#3 695704634#4 695704634#5 695704634#6 695704634#7 695704634#8 695704634#9 695704634#11 695704634#13 452900417#0 452900417#1 452900417#2 452900417#3 164458270#1 164458270#2 695706747#0"/>
    </vehicle>
    <vehicle id="102" depart="102.00">
        <route edges="148476865#0 148476865#1 -695671246#0 -452900379#7 -452900379#6 -452900379#5 -452900379#4 -452900379#2 -452900379#1 -452900379#0 -169244325#7 -169244325#5 -169244325#4 -169244325#3 -169244325#2 -169244325#1 452900367#2 452900367#3 452900422#0 452900422#2 452900474#1 452900474#3 452900474#4 452900474#5 452900474#6 452900474#7 452900474#8 452900474#9 452900474#10 -964166551 -551237882#1 -551237881#3 551237884#0 551237884#1 551237884#2 -551237885#4"/>
    </vehicle>
    <vehicle id="105" depart="105.00">
        <route edges="-616790748 616790721#1 616790721#2 616790721#3 -616790862 452900366#1 452900367#2 452900367#3 452900422#0 452900422#2 452900474#1 452900474#3 452900474#4 452900474#5 452900474#6 452900474#7 452900474#8 452900474#9 452900474#10 -964166551 -551237882#1 -551237881#3 -551237881#2 -551237881#1 -551237881#0 551237846#1 551237846#2 551237846#3 -551237887#3 -551237887#2 -551237887#1 -551237887#0 551237841#6 52058628#0 52058628#1 52058628#2 52058628#3 695670296#0 695670296#3 616790760#0 616790760#1 616790760#2 616790760#3 616790760#4 616790736#1 616790750#0 616790750#1 616790750#2 616790750#3 616790750#4 616790750#5 616790750#6"/>
    </vehicle>
    <vehicle id="106" depart="106.00">
        <route edges="-963881129 -616790933#0 -616790939#5 -616790939#4 -616790939#3 -616790939#2 -616790939#1 -616790939#0 695670296#3 695670296#4 551237840#0 551237840#1 551237840#2 551237840#3 551237840#4 695671247#0 695671248#1 -695671248#1"/>
    </vehicle>
    <vehicle id="109" depart="109.00">
        <route edges="-551237852#2 551237845#4 551237845#5 551237845#6 551237845#7 551237846#0 551237881#0 551237881#1 551237881#2 551237881#3 551237882#1 964166551 -452900474#10 -452900474#9 -452900474#8 -452900474#7 -452900474#6 -452900474#5 -452900474#4 -452900474#3 -452900474#1 -452900474#0 -452900422#0 452900366#0 452900366#1 169244325#1 169244325#2 169244325#3 169244325#4 169244325#5 169244325#7 169244325#8 452900379#1 452900379#2 -625666456#5 -625666456#4 -625666456#3 -625666456#2 -625666456#1 -625666456#0 616790811#0 616790811#1 -695673136#1 -695673136#0 -616790777#1 -616790777#0 936316091#5 -616790762"/>
    </vehicle>
    <vehicle id="110" depart="110.00">
        <route edges="936316091#5 936316091#6 936316088#0 551237841#1 551237841#2 551237841#3 551237841#4 551237841#6 52058581#0 52058581#1 52058581#3 52058581#4 52058581#5 52058581#6 52058581#7 52058581#8 52058581#9 695704634#0 695704634#1 695704634#2 695704634#3 695704634#4 695704634#5 -452900432#1 452900399"/>
    </vehicle>
    <vehicle id="113" depart="113.00">
        <route edges="169244325#3 -169244325#3 -169244325#2 -169244325#1 452900367#2 452900367#3 452900422#0 -452900478 -616790726#1 616790725 616790986"/>
    </vehicle>
    <vehicle id="114" depart="114.00">